diff --git a/Makefile b/Makefile
index 83b2067..76260ca 100644
--- a/Makefile
+++ b/Makefile
@@ -87,7 +87,7 @@ ifneq ($(GPGPUSIM_POWER_MODEL),)
 		MCPAT_DBG_FLAG = dbg
 	endif
 
-	MCPAT_OBJ_DIR = $(SIM_OBJ_FILES_DIR)/gpuwattch
+	MCPAT_OBJ_DIR = $(SIM_OBJ_FILES_DIR)/accelwattch
 
 	MCPAT = $(MCPAT_OBJ_DIR)/*.o
 endif
@@ -117,24 +117,24 @@ check_setup_environment:
 	 fi 
 
 check_power:
-	@if [ -d "$(GPGPUSIM_ROOT)/src/gpuwattch/" -a ! -n "$(GPGPUSIM_POWER_MODEL)" ]; then \
+	@if [ -d "$(GPGPUSIM_ROOT)/src/accelwattch/" -a ! -n "$(GPGPUSIM_POWER_MODEL)" ]; then \
 		echo ""; \
-		echo "	Power model detected in default directory ($(GPGPUSIM_ROOT)/src/gpuwattch) but GPGPUSIM_POWER_MODEL not set."; \
-		echo "	Please re-run setup_environment or manually set GPGPUSIM_POWER_MODEL to the gpuwattch directory if you would like to include the GPGPU-Sim Power Model."; \
+		echo "	Power model detected in default directory ($(GPGPUSIM_ROOT)/src/accelwattch) but GPGPUSIM_POWER_MODEL not set."; \
+		echo "	Please re-run setup_environment or manually set GPGPUSIM_POWER_MODEL to the accelwattch directory if you would like to include the GPGPU-Sim Power Model."; \
 		echo ""; \
 		true; \
 	elif [ ! -d "$(GPGPUSIM_POWER_MODEL)" ]; then \
 		echo ""; \
 		echo "ERROR ** Power model directory invalid."; \
 		echo "($(GPGPUSIM_POWER_MODEL)) is not a valid directory."; \
-		echo "Please set GPGPUSIM_POWER_MODEL to the GPGPU-Sim gpuwattch directory."; \
+		echo "Please set GPGPUSIM_POWER_MODEL to the GPGPU-Sim accelwattch directory."; \
 		echo ""; \
 		exit 101; \
 	elif [ -n "$(GPGPUSIM_POWER_MODEL)" -a ! -f "$(GPGPUSIM_POWER_MODEL)/gpgpu_sim.verify" ]; then \
 		echo ""; \
 		echo "ERROR ** Power model directory invalid."; \
 		echo "gpgpu_sim.verify not found in $(GPGPUSIM_POWER_MODEL)."; \
-		echo "Please ensure that GPGPUSIM_POWER_MODEL points to a valid gpuwattch directory and that you have the correct GPGPU-Sim mcpat distribution."; \
+		echo "Please ensure that GPGPUSIM_POWER_MODEL points to a valid accelwattch directory and that you have the correct GPGPU-Sim mcpat distribution."; \
 		echo ""; \
 		exit 102; \
 	fi
@@ -248,8 +248,8 @@ makedirs:
 	if [ ! -d $(SIM_OBJ_FILES_DIR)/libopencl/bin ]; then mkdir -p $(SIM_OBJ_FILES_DIR)/libopencl/bin; fi;
 	if [ ! -d $(SIM_OBJ_FILES_DIR)/$(INTERSIM) ]; then mkdir -p $(SIM_OBJ_FILES_DIR)/$(INTERSIM); fi;
 	if [ ! -d $(SIM_OBJ_FILES_DIR)/cuobjdump_to_ptxplus ]; then mkdir -p $(SIM_OBJ_FILES_DIR)/cuobjdump_to_ptxplus; fi;
-	if [ ! -d $(SIM_OBJ_FILES_DIR)/gpuwattch ]; then mkdir -p $(SIM_OBJ_FILES_DIR)/gpuwattch; fi;
-	if [ ! -d $(SIM_OBJ_FILES_DIR)/gpuwattch/cacti ]; then mkdir -p $(SIM_OBJ_FILES_DIR)/gpuwattch/cacti; fi;
+	if [ ! -d $(SIM_OBJ_FILES_DIR)/accelwattch ]; then mkdir -p $(SIM_OBJ_FILES_DIR)/accelwattch; fi;
+	if [ ! -d $(SIM_OBJ_FILES_DIR)/accelwattch/cacti ]; then mkdir -p $(SIM_OBJ_FILES_DIR)/accelwattch/cacti; fi;
 
 all:
 	$(MAKE) gpgpusim
diff --git a/configs/tested-cfgs/SM6_TITANX/accelwattch_ptx_sim.xml b/configs/tested-cfgs/SM6_TITANX/accelwattch_ptx_sim.xml
new file mode 100644
index 0000000..d94d5bd
--- /dev/null
+++ b/configs/tested-cfgs/SM6_TITANX/accelwattch_ptx_sim.xml
@@ -0,0 +1,623 @@
+<?xml version="1.0" ?>
+<component id="root" name="root">
+	<component id="system" name="system">
+<!-- Copyright (c) 2018-2021, Vijay Kandiah, Junrui Pan, Mahmoud Khairy, Scott Peverelle, Timothy Rogers, Tor M. Aamodt, Nikos Hardavellas
+Northwestern University, Purdue University, The University of British Columbia
+All rights reserved.
+
+Redistribution and use in source and binary forms, with or without
+modification, are permitted provided that the following conditions are met:
+
+1. Redistributions of source code must retain the above copyright notice, this
+   list of conditions and the following disclaimer;
+2. Redistributions in binary form must reproduce the above copyright notice,
+   this list of conditions and the following disclaimer in the documentation
+   and/or other materials provided with the distribution;
+3. Neither the names of Northwestern University, Purdue University,
+   The University of British Columbia nor the names of their contributors
+   may be used to endorse or promote products derived from this software
+   without specific prior written permission.
+
+THIS SOFTWARE IS PROVIDED BY THE COPYRIGHT HOLDERS AND CONTRIBUTORS "AS IS"
+AND ANY EXPRESS OR IMPLIED WARRANTIES, INCLUDING, BUT NOT LIMITED TO, THE
+IMPLIED WARRANTIES OF MERCHANTABILITY AND FITNESS FOR A PARTICULAR PURPOSE
+ARE DISCLAIMED. IN NO EVENT SHALL THE COPYRIGHT HOLDER OR CONTRIBUTORS BE
+LIABLE FOR ANY DIRECT, INDIRECT, INCIDENTAL, SPECIAL, EXEMPLARY, OR
+CONSEQUENTIAL DAMAGES (INCLUDING, BUT NOT LIMITED TO, PROCUREMENT OF
+SUBSTITUTE GOODS OR SERVICES; LOSS OF USE, DATA, OR PROFITS; OR BUSINESS
+INTERRUPTION) HOWEVER CAUSED AND ON ANY THEORY OF LIABILITY, WHETHER IN
+CONTRACT, STRICT LIABILITY, OR TORT (INCLUDING NEGLIGENCE OR OTHERWISE)
+ARISING IN ANY WAY OUT OF THE USE OF THIS SOFTWARE, EVEN IF ADVISED OF THE
+POSSIBILITY OF SUCH DAMAGE. -->
+
+		<!-- DYNAMIC Power Activity Factors -->
+
+		<param name="TOT_INST" value="2" /> <!--Instruction Buffer Activity Factor(Total Warp Instructions)-->
+		<param name="FP_INT" value="4.57" /> <!--Scheduler Activity Factor(Non-Memory Warp Instructons)-->
+		<param name="IC_H" value="11.44089762" /> <!--Instruction Cache Hits -->
+		<param name="IC_M" value="21.76302498" /> <!--Instruction Cache Misses-->
+		<param name="DC_RH" value="7.737353491" /> <!--L1 Data Cache Read Hits--> 
+		<param name="DC_RM" value="8.618027871" /> <!--L1 Data Cache Read Misses-->
+		<param name="DC_WH" value="0.53469516" /> <!--L1 Data Cache Write Hits-->
+		<param name="DC_WM" value="13.9055689" /> <!--L1 Data Cache Write Misses-->
+		<param name="CC_H" value="0.65916315" /> <!--Constant Cache Hits-->
+		<param name="CC_M" value="0.73418985" /> <!--Constant Cache Misses-->
+		<param name="SHRD_ACC" value="1.313660815" /> <!--Shared Memory Accesses-->
+		<param name="REG_RD" value="0.053279375" /> <!--Register Reads-->
+		<param name="REG_WR" value="0.079919063" /> <!--Register Writes-->
+		<param name="INT_ACC" value="3.429666768" /> <!--Integer ALU Accesses-->
+		<param name="FP_ACC" value="0.711591276" /> <!--FPU Accesses-->
+		<param name="DP_ACC" value="0.742812382" /> <!--Integer Accesses-->
+		<param name="INT_MUL_ACC" value="0.148636575" /> <!--Integer MUL Accesses-->
+		<param name="FP_MUL_ACC" value="0.212559571" /> <!--FP MUL Accesses-->
+		<param name="FP_SQRT_ACC" value="1.241271438" /> <!--SFU: sqrt Accesses-->
+		<param name="FP_LG_ACC" value="0.59034036" /> <!--SFU: log Accesses-->
+		<param name="FP_SIN_ACC" value="0.212555149" /> <!--SFU: sin/cos Accesses-->
+		<param name="FP_EXP_ACC" value="0.702043615" /> <!--SFU: exponent Accesses-->
+		<param name="DP_MUL_ACC" value="0.282564496" /> <!--DP MUL Accesses-->
+		<param name="TENSOR_ACC" value="2.485" /> <!--Tensor Accesses-->
+		<param name="TEX_ACC" value="0.212559047" /> <!--Texture Unit Accesses-->
+		<param name="MEM_RD" value="0.02772" /> <!--DRAM Reads-->
+		<param name="MEM_WR" value="0.0336" /> <!--DRAM Writes-->
+		<param name="MEM_PRE" value="0.00924" /> <!--DRAM Precharge-->
+		<param name="L2_RH" value="1.046834662" /> <!--L2 Data Cache Read Hits--> 
+		<param name="L2_RM" value="2.670605032" /> <!--L2 Data Cache Read Misses-->
+		<param name="L2_WH" value="3.269555394" /> <!--L2 Data Cache Write Hits-->
+		<param name="L2_WM" value="2.18020968" /> <!--L2 Data Cache Write Misses-->
+		<param name="NOC_A" value="83.18977901" /> <!--Interconnect Network Accesses-->
+		<param name="PIPE_A" value="0.0257" /> <!--Pipeline Accesses-->
+
+		<!-- PTX Model specific DYNAMIC Power Activity Factors-->
+
+		<param name="TC_H" value="0.01021" /> <!--Texture Cache Hits-->
+		<param name="TC_M" value="0.02466" /> <!--Texture Cache Misses-->
+		<param name="INT_MUL24_ACC" value="0.290770573" /> <!--Integer 24-bit MUL Accesses-->
+		<param name="INT_MUL32_ACC" value="0.252598514" /> <!--Integer 32-bit MUL Accesses-->
+		<param name="INT_DIV_ACC" value="5.121706665" /> <!--Integer DIV Accesses-->
+		<param name="FP_DIV_ACC" value="4.599926258" /> <!--FP DIV Accesses-->
+		<param name="DP_DIV_ACC" value="25.84876211" /> <!--DP DIV Accesses-->
+
+		<!-- STATIC & CONSTANT Power -->
+
+		<param name="constant_power" value="32.32522272" /> <!--Constant power-->
+		<param name="idle_core_power" value="0.28279166"/> <!--Idle SM power-->
+
+		<param name="static_cat1_flane" value="15.29035866"/> <!--INT (ADD+MUL) First Lane Activation Power-->
+		<param name="static_cat1_addlane" value="0.586233603"/> <!--INT (ADD+MUL) Additional Lane Activation Power-->
+
+		<param name="static_cat2_flane" value="18.6179906"/> <!--INT+FP First Lane Activation Power-->
+		<param name="static_cat2_addlane" value="0.645228013"/> <!--INT+FP Additional Lane Activation Power-->
+
+		<param name="static_cat3_flane" value="19.10017723"/> <!--INT+FP+DP First Lane Activation Power-->
+		<param name="static_cat3_addlane" value="0.726863055"/> <!--INT+FP+DP Additional Lane Activation Power-->
+
+		<param name="static_cat4_flane" value="18.55029744"/> <!--INT+FP+SFU First Lane Activation Power-->
+		<param name="static_cat4_addlane" value="0.6099397"/> <!--INT+FP+SFU Additional Lane Activation Power-->
+
+		<param name="static_cat5_flane" value="14.74826681"/> <!--INT+FP+TEX First Lane Activation Power-->
+		<param name="static_cat5_addlane" value="0.514367937"/> <!--INT+FP+TEX Additional Lane Activation Power-->
+
+		<param name="static_cat6_flane" value="48.94875596"/> <!--INT+FP+TENSOR First Lane Activation Power-->
+		<param name="static_cat6_addlane" value="0.0"/> <!--INT+FP+TENSOR Additional Lane Activation Power-->
+
+		<param name="static_light_flane" value="1.965373811"/> <!--LIGHT_SM First Lane Activation Power-->
+		<param name="static_light_addlane" value="0.003966868"/> <!--LIGHT_SM Additional Lane Activation Power-->
+
+		<param name="static_intadd_flane" value="19.70468506"/> <!--INT ADD First Lane Activation Power-->
+		<param name="static_intadd_addlane" value="0.388578623"/> <!--INT ADD Additional Lane Activation Power-->
+
+		<param name="static_intmul_flane" value="16.64811823"/> <!--INT MUL First Lane Activation Power-->
+		<param name="static_intmul_addlane" value="0.281803166"/> <!--INT MUL Additional Lane Activation Power-->
+
+		<param name="static_geomean_flane" value="17.21745077"/> <!--GEOMEAN First Lane Activation Power-->
+		<param name="static_geomean_addlane" value="0.650630555"/> <!--GEOMEAN Additional Lane Activation Power-->		
+		<param name="static_shared_flane" value="31.40965691"/> <!--Shared Memory First Lane Activation Power-->
+		<param name="static_l1_flane" value="34.79491352"/> <!--L1D First Lane Activation Power-->
+		<param name="static_l2_flane" value="17.30654755"/> <!--L2D ADD+MUL First Lane Activation Power-->
+
+
+		<!-- LEAVE BELOW UNCHANGED! These are parameters used for initial GPUWattch model left untouched -->
+
+
+		<param name="GPU_Architecture" value="1"/><!-- 0-G80; 1-Fermi; others not supported -->
+		<param name="architecture" value="1"/> <!-- fermi:1 quadro:2 other: undefined-->
+		<param name="number_of_L1Directories" value="0"/>
+		<param name="number_of_L2Directories" value="0"/>
+		<param name="number_of_L2s" value="1"/> <!-- This number means how many L2 clusters in each cluster there can be multiple banks/ports -->
+		<param name="number_of_L3s" value="0"/> <!-- This number means how many L3 clusters -->
+		<param name="number_of_NoCs" value="1"/> 
+		<param name="homogeneous_cores" value="1"/><!--1 means homo -->
+		<param name="homogeneous_L2s" value="1"/>
+		<param name="homogeneous_L1Directorys" value="1"/>
+		<param name="homogeneous_L2Directorys" value="1"/>
+		<param name="homogeneous_L3s" value="1"/>
+		<param name="homogeneous_ccs" value="1"/><!--cache coherece hardware -->
+		<param name="homogeneous_NoCs" value="1"/>
+		<param name="core_tech_node" value="23"/><!-- nm -->
+
+		<param name="number_cache_levels" value="2"/>
+		<param name="interconnect_projection_type" value="0"/><!--0: agressive wire technology; 1: conservative wire technology -->
+		<param name="device_type" value="0"/><!--0: HP(High Performance Type); 1: LSTP(Low standby power) 2: LOP (Low Operating Power)  -->
+		<param name="longer_channel_device" value="1"/><!-- 0 no use; 1 use when possible -->
+		<param name="machine_bits" value="32"/>
+		<param name="virtual_address_width" value="32"/>
+		<param name="physical_address_width" value="32"/>
+		<param name="virtual_memory_page_size" value="4096"/>
+
+		<param name="IDLE_CORE_N" value="1"/>
+		<stat name="num_idle_cores" value="0"/><!-- Average Number of idle cores during this period -->
+		<stat name="total_cycles" value="total_cycles_match_mcpat"/>
+		<stat name="idle_cycles" value="idle_cycles_match_mcpat"/>
+		<stat name="busy_cycles"  value="busy_cycles_match_mcpat"/>
+			<!--This page size(B) is complete different from the page size in Main memo secction. this page size is the size of 
+			virtual memory from OS/Archi perspective; the page size in Main memo secction is the actuall physical line in a DRAM bank  -->
+		<!-- *********************** cores ******************* -->
+		<component id="system.core0" name="core0">
+			<!-- Core property -->
+			<param name="clock_rate" value="700"/>
+			<param name="instruction_length" value="32"/>
+			<param name="opcode_width" value="9"/>
+			<!-- address width determins the tag_width in Cache, LSQ and buffers in cache controller 
+			default value is machine_bits, if not set --> 
+			<param name="machine_type" value="1"/><!-- 1 inorder; 0 OOO-->
+			<!-- inorder/OoO -->
+			<param name="number_hardware_threads" value="32"/>
+			<!-- number_instruction_fetch_ports(icache ports) is always 1 in single-thread processor,
+			it only may be more than one in SMT processors. BTB ports always equals to fetch ports since 
+			branch information in consective branch instructions in the same fetch group can be read out from BTB once.--> 
+			<param name="fetch_width" value="1"/>
+			<!-- fetch_width determins the size of cachelines of L1 cache block -->
+			<param name="number_instruction_fetch_ports" value="1"/>
+			<param name="decode_width" value="1"/>
+			<!-- decode_width determins the number of ports of the 
+			renaming table (both RAM and CAM) scheme -->
+			<param name="issue_width" value="2"/>
+			<!-- issue_width determins the number of ports of Issue window and other logic 
+			as in the complexity effective proccessors paper; issue_width==dispatch_width -->
+			<param name="commit_width" value="2"/>
+			<!-- commit_width determins the number of ports of register files -->
+			<param name="fp_issue_width" value="1"/>
+			<param name="prediction_width" value="0"/> 
+			<!-- number of branch instructions can be predicted simultannouesl-->
+			<!-- Current version of McPAT does not distinguish int and floating point pipelines 
+			Theses parameters are reserved for future use.--> 
+			<param name="pipelines_per_core" value="1,1"/>
+			<!--integer_pipeline and floating_pipelines, if the floating_pipelines is 0, then the pipeline is shared-->
+			<param name="pipeline_depth" value="8,8"/>
+			<!-- pipeline depth of int and fp, if pipeline is shared, the second number is the average cycles of fp ops -->
+			<!-- issue and exe unit-->
+			<param name="ALU_per_core" value="32"/>
+			<!-- contains an adder, a shifter, and a logical unit -->
+			<param name="MUL_per_core" value="4"/>
+			<!-- For MUL and Div -->
+			<param name="FPU_per_core" value="32"/>		
+			<!-- buffer between IF and ID stage -->
+			<param name="instruction_buffer_size" value="1"/>
+			<!-- buffer between ID and sche/exe stage -->
+			<param name="decoded_stream_buffer_size" value="1"/>
+			<param name="instruction_window_scheme" value="0"/><!-- 0 PHYREG based, 1 RSBASED-->
+			<!-- McPAT support 2 types of OoO cores, RS based and physical reg based-->
+			<param name="instruction_window_size" value="1"/>
+			<param name="fp_instruction_window_size" value="1"/>
+			<!-- the instruction issue Q as in Alpha 21264; The RS as in Intel P6 -->
+			<param name="ROB_size" value="0"/>
+			<!-- each in-flight instruction has an entry in ROB -->
+			<!-- registers -->
+			<!-- SM parameters  Added by Syed Gilani -->
+			<param name="rf_banks" value="32"/>
+			<param name="simd_width" value="32"/>
+			<param name="collector_units" value="32"/>
+			<param name="core_clock_ratio" value="2"/>
+			<param name="warp_size" value="32"/>
+
+			<param name="archi_Regs_IRF_size" value="65536"/>			
+			<param name="archi_Regs_FRF_size" value="32"/>
+			<!--  if OoO processor, phy_reg number is needed for renaming logic, 
+			renaming logic is for both integer and floating point insts.  -->
+			<param name="phy_Regs_IRF_size" value="32"/>
+			<param name="phy_Regs_FRF_size" value="32"/>
+			<!-- rename logic -->
+			<param name="rename_scheme" value="0"/>
+			<!-- can be RAM based(0) or CAM based(1) rename scheme 
+			RAM-based scheme will have free list, status table;
+			CAM-based scheme have the valid bit in the data field of the CAM 
+			both RAM and CAM need RAM-based checkpoint table, checkpoint_depth=# of in_flight instructions;
+			Detailed RAT Implementation see TR -->
+			<param name="register_windows_size" value="0"/>
+			<!-- how many windows in the windowed register file, sun processors;
+			no register windowing is used when this number is 0 -->
+			<!-- In OoO cores, loads and stores can be issued whether inorder(Pentium Pro) or (OoO)out-of-order(Alpha),
+			They will always try to exeute out-of-order though. -->
+			<param name="LSU_order" value="inorder"/>
+			<param name="store_buffer_size" value="32"/>
+			<!-- By default, in-order cores do not have load buffers -->
+			<param name="load_buffer_size" value="32"/>	
+			<!-- number of ports refer to sustainable concurrent memory accesses --> 
+			<param name="memory_ports" value="2"/>	
+			<!-- max_allowed_in_flight_memo_instructions determins the # of ports of load and store buffer
+			as well as the ports of Dcache which is connected to LSU -->	
+			<!-- dual-pumped Dcache can be used to save the extra read/write ports -->
+			<param name="RAS_size" value="1"/>						
+			<!-- general stats, defines simulation periods;require total, idle, and busy cycles for senity check  -->
+			<!-- please note: if target architecture is X86, then all the instrucions refer to (fused) micro-ops -->
+			<stat name="total_instructions" value="total_instructions_match_mcpat"/>
+			<stat name="int_instructions" value="int_instruction_match_mcpat"/>
+			<stat name="fp_instructions" value="flt_instruction_match_mcpat"/>
+			<stat name="branch_instructions" value="branch_instruction_match_mcpat"/>
+			<stat name="branch_mispredictions" value="0"/>
+			<stat name="load_instructions" value="load_instruction_match_mcpat"/>
+			<stat name="store_instructions" value="store_instruction_match_mcpat"/>
+			<stat name="committed_instructions" value="total_instructions_match_mcpat"/>
+			<stat name="committed_int_instructions" value="int_instruction_match_mcpat"/>
+			<stat name="committed_fp_instructions" value="flt_instruction_match_mcpat"/>
+			<stat name="pipeline_duty_cycle" value="0.6"/><!--<=1, runtime_ipc/peak_ipc; averaged for all cores if homogenous -->
+			<!-- the following cycle stats are used for heterogeneouse cores only, 
+				please ignore them if homogeneouse cores -->
+			<stat name="total_cycles" value="total_cycles_match_mcpat"/>
+		    <stat name="idle_cycles" value="idle_cycles_match_mcpat"/>
+		    <stat name="busy_cycles"  value="busy_cycles_match_mcpat"/>
+			<!-- instruction buffer stats -->
+			<!-- ROB stats, both RS and Phy based OoOs have ROB
+			performance simulator should capture the difference on accesses,
+			otherwise, McPAT has to guess based on number of commited instructions. -->
+			<stat name="ROB_reads" value="263886"/>
+			<stat name="ROB_writes" value="263886"/>
+			<!-- RAT accesses -->
+			<stat name="rename_accesses" value="263886"/>
+			<stat name="fp_rename_accesses" value="263886"/>
+			<!-- decode and rename stage use this, should be total ic - nop -->
+			<!-- Inst window stats -->
+			<stat name="inst_window_reads" value="263886"/>
+			<stat name="inst_window_writes" value="263886"/>
+			<stat name="inst_window_wakeup_accesses" value="263886"/>
+			<stat name="fp_inst_window_reads" value="263886"/>
+			<stat name="fp_inst_window_writes" value="263886"/>
+			<stat name="fp_inst_window_wakeup_accesses" value="263886"/>
+			<!--  RF accesses -->
+			<stat name="int_regfile_reads" value="int_register_read_access_match_mcpat"/>
+			<stat name="float_regfile_reads" value="int_register_write_access_match_mcpat"/>
+			<stat name="int_regfile_writes" value="float_register_read_access_match_mcpat"/>
+			<stat name="float_regfile_writes" value="float_register_write_access_match_mcpat"/>
+			
+			<!-- The following stat is for operand collector power - Added by Syed -->
+			<stat name="non_rf_operands" value="0"/>
+
+			<!-- accesses to the working reg -->
+			<stat name="function_calls" value="0"/>
+			<stat name="context_switches" value="0"/> <!--not used in the McPAT -->
+			<!-- Number of Windowes switches (number of function calls and returns)-->
+			<!-- Alu stats by default, the processor has one FPU that includes the divider and 
+			 multiplier. The fpu accesses should include accesses to multiplier and divider  -->
+			<stat name="ialu_accesses" value="ialu_accesses_match_mcpat"/>			
+			<stat name="fpu_accesses" value="fpu_accesses_match_mcpat"/>
+			<stat name="mul_accesses" value="mul_accesses_match_mcpat"/>
+			<stat name="cdb_alu_accesses" value="0"/>
+			<stat name="cdb_mul_accesses" value="0"/>
+			<stat name="cdb_fpu_accesses" value="0"/>
+			<!-- multiple cycle accesses should be counted multiple times, 
+			otherwise, McPAT can use internal counter for different floating point instructions 
+			to get final accesses. But that needs detailed info for floating point inst mix -->
+			<!--  currently the performance simulator should 
+			make sure all the numbers are final numbers, 
+			including the explicit read/write accesses, 
+			and the implicite accesses such as replacements and etc.
+			Future versions of McPAT may be able to reason the implicite access
+			based on param and stats of last level cache
+			The same rule applies to all cache access stats too!  -->
+			<!-- following is AF for max power computation. 
+				Do not change them, unless you understand them-->
+			<stat name="IFU_duty_cycle" value="0.25"/>			
+			<stat name="LSU_duty_cycle" value="0.25"/>
+			<stat name="MemManU_I_duty_cycle" value="1"/>
+			<stat name="MemManU_D_duty_cycle" value="0.25"/>
+			<stat name="ALU_duty_cycle" value="0.9"/>
+			<stat name="MUL_duty_cycle" value="0.5"/>
+			<stat name="FPU_duty_cycle" value="1"/><!-- FPU numbers are already average -->
+			<stat name="ALU_cdb_duty_cycle" value="0.9"/>
+			<stat name="MUL_cdb_duty_cycle" value="0.5"/>
+			<stat name="FPU_cdb_duty_cycle" value="15"/>	
+			<component id="system.core0.predictor" name="PBT">
+				<!-- branch predictor; tournament predictor see Alpha implementation -->
+				<param name="local_predictor_size" value="10,3"/>
+				<param name="local_predictor_entries" value="1024"/>
+				<param name="global_predictor_entries" value="4096"/>
+				<param name="global_predictor_bits" value="2"/>
+				<param name="chooser_predictor_entries" value="4096"/>
+				<param name="chooser_predictor_bits" value="2"/>
+				<!-- These parameters can be combined like below in next version
+				<param name="load_predictor" value="10,3,1024"/>
+				<param name="global_predictor" value="4096,2"/>
+				<param name="predictor_chooser" value="4096,2"/>
+				-->
+			</component>
+			<component id="system.core0.itlb" name="itlb">
+				<param name="number_entries" value="1"/>
+				<stat name="total_accesses" value="0"/>
+				<stat name="total_misses" value="0"/>
+				<stat name="conflicts" value="0"/>	
+				<!-- there is no write requests to itlb although writes happen to itlb after miss, 
+				which is actually a replacement -->
+			</component>
+			<component id="system.core0.icache" name="icache">
+				<!-- there is no write requests to itlb although writes happen to it after miss, 
+				which is actually a replacement -->
+				<param name="icache_config" value="16384,128,4,1,1,3,8,0"/>
+				<!-- the parameters are capacity,block_width, associativity, bank, throughput w.r.t. core clock, latency w.r.t. core clock,output_width, cache policy -->
+				<!-- cache_policy;//0 no write or write-though with non-write allocate;1 write-back with write-allocate -->
+				<param name="buffer_sizes" value="16, 16, 16,0"/>
+				<!-- cache controller buffer sizes: miss_buffer_size(MSHR),fill_buffer_size,prefetch_buffer_size,wb_buffer_size--> 
+				<stat name="read_accesses" value="total_instructions_match_mcpat"/>
+				<stat name="read_misses" value="0"/>
+				<stat name="conflicts" value="0"/>				
+			</component>
+			<component id="system.core0.dtlb" name="dtlb">
+				<param name="number_entries" value="1"/>
+				<stat name="total_accesses" value="0"/>
+				<stat name="total_misses" value="0"/>
+				<stat name="conflicts" value="0"/>	
+			</component>
+			<component id="system.core0.ccache" name="ccache">
+			        <!-- all the buffer related are optional -->
+				<param name="ccache_config" value="16384,64,2,1,1,3,8,0"/>
+				<param name="buffer_sizes" value="16, 16, 16, 0"/>
+				<!-- cache controller buffer sizes: miss_buffer_size(MSHR),fill_buffer_size,prefetch_buffer_size,wb_buffer_size-->	
+				<stat name="read_accesses" value="ccache_read_accesses_match_mcpat"/>
+				<stat name="write_accesses" value="0"/>
+				<stat name="read_misses" value="ccache_read_misses_match_mcpat"/>
+				<stat name="write_misses" value="0"/>
+				<stat name="conflicts" value="0"/>	
+			</component>
+			<component id="system.core0.tcache" name="tcache">
+			        <!-- all the buffer related are optional -->
+				<param name="tcache_config" value="49152,128,8,1,1,3,8,0"/>
+				<param name="buffer_sizes" value="16, 16, 16, 0"/>
+				<!-- cache controller buffer sizes: miss_buffer_size(MSHR),fill_buffer_size,prefetch_buffer_size,wb_buffer_size-->	
+				<stat name="read_accesses" value="tcache_read_accesses_match_mcpat"/>
+				<stat name="write_accesses" value="0"/>
+				<stat name="read_misses" value="tcache_read_misses_match_mcpat"/>
+				<stat name="write_misses" value="0"/>
+				<stat name="conflicts" value="0"/>	
+			</component>
+      <!--model the shared memory by mimicing dcache-->
+			<component id="system.core0.sharedmemory" name="sharedmemory">
+			        <!-- all the buffer related are optional -->
+				<param name="sharedmemory_config" value="98304,16,1,16,1,3,16,0"/>
+				<!-- the parameters are capacity,block_width, associativity, bank, throughput w.r.t. core clock, latency w.r.t. core clock,output_width, cache policy -->
+				<param name="buffer_sizes" value="16, 16, 16, 16"/>
+				<!-- cache controller buffer sizes: miss_buffer_size(MSHR),fill_buffer_size,prefetch_buffer_size,wb_buffer_size-->	
+				<stat name="read_accesses" value="sharedmemory_read_access_match_mcpat"/>
+				<stat name="write_accesses" value="sharedmemory_write_access_match_mcpat"/>
+				<stat name="read_misses" value="0"/>
+				<stat name="write_misses" value="0"/>
+				<stat name="conflicts" value="0"/>	
+			</component>
+			<component id="system.core0.dcache" name="dcache">
+			        <!-- all the buffer related are optional -->
+				<param name="dcache_config" value="16384,32,4,1,1,3,8,0"/>
+				<param name="buffer_sizes" value="16, 16, 16, 0"/>
+				<!-- cache controller buffer sizes: miss_buffer_size(MSHR),fill_buffer_size,prefetch_buffer_size,wb_buffer_size-->	
+				<stat name="read_accesses" value="dcache_read_access_match_mcpat"/>
+				<stat name="write_accesses" value="dcache_write_access_match_mcpat"/>
+				<stat name="read_misses" value="dcache_read_miss_match_mcpat"/>
+				<stat name="write_misses" value="dcache_write_miss_match_mcpat"/>
+				<stat name="conflicts" value="0"/>	
+			</component>
+			<component id="system.core0.BTB" name="BTB">
+			        <!-- all the buffer related are optional -->
+				<param name="BTB_config" value="8192,4,2,1, 1,3"/>
+				<!-- the parameters are capacity,block_width,associativity,bank, throughput w.r.t. core clock, latency w.r.t. core clock,-->
+			</component>
+	</component>
+		<component id="system.L1Directory0" name="L1Directory0">
+				<param name="Directory_type" value="0"/>
+			    <!--0 cam based shadowed tag. 1 directory cache -->	
+				<param name="Dir_config" value="2048,1,0,1, 4, 4,8"/>
+				<!-- the parameters are capacity,block_width, associativity,bank, throughput w.r.t. core clock, latency w.r.t. core clock,-->
+			    <param name="buffer_sizes" value="8, 8, 8, 8"/>	
+				<!-- all the buffer related are optional -->
+			    <param name="clockrate" value="1400"/>
+				<param name="ports" value="1,1,1"/>
+				<!-- number of r, w, and rw search ports -->
+				<param name="device_type" value="0"/>
+				<!-- altough there are multiple access types, 
+				Performance simulator needs to cast them into reads or writes
+				e.g. the invalidates can be considered as writes -->
+				<stat name="read_accesses" value="800000"/>
+				<stat name="write_accesses" value="27276"/>
+				<stat name="read_misses" value="1632"/>
+				<stat name="write_misses" value="183"/>
+				<stat name="conflicts" value="20"/>	
+				<stat name="duty_cycle" value="0.45"/>	
+		</component>
+		<component id="system.L2Directory0" name="L2Directory0">
+				<param name="Directory_type" value="1"/>
+			    <!--0 cam based shadowed tag. 1 directory cache -->	
+				<param name="Dir_config" value="1048576,16,16,1,2, 100"/>
+				<!-- the parameters are capacity,block_width, associativity,bank, throughput w.r.t. core clock, latency w.r.t. core clock,-->
+			    <param name="buffer_sizes" value="8, 8, 8, 8"/>	
+				<!-- all the buffer related are optional -->
+			    <param name="clockrate" value="1400"/>
+				<param name="ports" value="1,1,1"/>
+				<!-- number of r, w, and rw search ports -->
+				<param name="device_type" value="0"/>
+				<!-- altough there are multiple access types, 
+				Performance simulator needs to cast them into reads or writes
+				e.g. the invalidates can be considered as writes -->
+				<stat name="read_accesses" value="0"/>
+				<stat name="write_accesses" value="0"/>
+				<stat name="read_misses" value="0"/>
+				<stat name="write_misses" value="0"/>
+				<stat name="conflicts" value="0"/>
+			    <stat name="duty_cycle" value="0.45"/>		
+		</component>
+		<component id="system.L20" name="L20">
+			<!-- all the buffer related are optional -->
+				<param name="L2_config" value="131072,128,16,1, 4,23, 64, 1"/>
+			    <!-- consider 4-way bank interleaving for Niagara 1 -->
+				<!-- the parameters are capacity,block_width, associativity, bank, throughput w.r.t. core clock, latency w.r.t. core clock,output_width, cache policy -->
+				<param name="buffer_sizes" value="16, 16, 16, 16"/>
+				<!-- cache controller buffer sizes: miss_buffer_size(MSHR),fill_buffer_size,prefetch_buffer_size,wb_buffer_size-->	
+				<param name="clockrate" value="2962"/>
+				<param name="ports" value="1,1,1"/>
+				<!-- number of r, w, and rw ports -->
+				<param name="device_type" value="0"/>
+				<stat name="read_accesses" value="200000"/>
+				<stat name="write_accesses" value="0"/>
+				<stat name="read_misses" value="0"/>
+				<stat name="write_misses" value="0"/>
+				<stat name="conflicts" value="0"/>	
+			    <stat name="duty_cycle" value="0.5"/>	
+		</component>
+		
+<!--**********************************************************************-->
+<component id="system.L30" name="L30">
+				<param name="L3_config" value="1048576,64,16,1, 2,100, 64,1"/>
+				<!-- the parameters are capacity,block_width, associativity, bank, throughput w.r.t. core clock, latency w.r.t. core clock,output_width, cache policy -->
+				<param name="clockrate" value="3500"/>
+				<param name="ports" value="1,1,1"/>
+				<!-- number of r, w, and rw ports -->
+				<param name="device_type" value="0"/>
+				<param name="buffer_sizes" value="16, 16, 16, 16"/>
+				<!-- cache controller buffer sizes: miss_buffer_size(MSHR),fill_buffer_size,prefetch_buffer_size,wb_buffer_size-->	
+				<stat name="read_accesses" value="58824"/>
+				<stat name="write_accesses" value="27276"/>
+				<stat name="read_misses" value="1632"/>
+				<stat name="write_misses" value="183"/>
+				<stat name="conflicts" value="0"/>	
+	            <stat name="duty_cycle" value="0.35"/>	
+		</component>
+
+
+<!--**********************************************************************-->
+		<component id="system.NoC0" name="noc0">
+			<param name="clockrate" value="700"/>
+			<param name="type" value="1"/>
+			<!-- 1 NoC, O bus -->
+			<param name="horizontal_nodes" value="2"/>
+			<param name="vertical_nodes" value="1"/>
+			<param name="has_global_link" value="0"/>
+			<!-- 1 has global link, 0 does not have global link -->
+			<param name="link_throughput" value="1"/><!--w.r.t clock -->
+			<param name="link_latency" value="1"/><!--w.r.t clock -->
+			<!-- througput >= latency -->
+			<!-- Router architecture -->
+			<param name="input_ports" value="6"/>
+			<param name="output_ports" value="6"/>
+			<param name="virtual_channel_per_port" value="1"/>
+			<!-- input buffer; in classic routers only input ports need buffers -->
+			<param name="flit_bits" value="32"/>
+			<param name="input_buffer_entries_per_vc" value="1"/><!--VCs within the same ports share input buffers whose size is propotional to the number of VCs-->
+			<param name="chip_coverage" value="1"/>
+			<!-- When multiple NOC present, one NOC will cover part of the whole chip. chip_coverage <=1 -->
+			<stat name="total_accesses" value="0"/>
+			<!-- This is the number of total accesses within the whole network not for each router -->
+			<stat name="duty_cycle" value="0.6"/>
+		</component>	
+<!--**********************************************************************-->
+<!--**********************************************************************-->
+
+		<component id="system.mem" name="mem">
+			<!-- Main memory property -->
+			<param name="mem_tech_node" value="23"/>
+			<param name="device_clock" value="200"/><!--MHz, this is clock rate of the actual memory device, not the FSB -->
+			<param name="peak_transfer_rate" value="3200"/><!--MB/S-->
+			<param name="internal_prefetch_of_DRAM_chip" value="4"/>
+			<!-- 2 for DDR, 4 for DDR2, 8 for DDR3...-->
+			<!-- the device clock, peak_transfer_rate, and the internal prefetch decide the DIMM property -->
+			<!-- above numbers can be easily found from Wikipedia -->
+			<param name="capacity_per_channel" value="4096"/> <!-- MB -->
+			<!-- capacity_per_Dram_chip=capacity_per_channel/number_of_dimms/number_ranks/Dram_chips_per_rank
+			Current McPAT assumes single DIMMs are used.--> 		
+			<param name="number_ranks" value="2"/>
+			<param name="num_banks_of_DRAM_chip" value="6"/>			
+			<param name="Block_width_of_DRAM_chip" value="64"/> <!-- B -->
+			<param name="output_width_of_DRAM_chip" value="8"/>
+			<!--number of Dram_chips_per_rank=" 72/output_width_of_DRAM_chip-->
+			<!--number of Dram_chips_per_rank=" 72/output_width_of_DRAM_chip-->
+			<param name="page_size_of_DRAM_chip" value="8"/> <!-- 8 or 16 -->
+			<param name="burstlength_of_DRAM_chip" value="8"/>
+			<stat name="memory_accesses" value="1052"/>
+			<stat name="memory_reads" value="1052"/>
+			<stat name="memory_writes" value="1052"/>									
+		</component>
+		<component id="system.mc" name="mc">
+			<!-- Memeory controllers are for DDR(2,3...) DIMMs -->
+			<!-- current version of McPAT uses published values for base parameters of memory controller
+			improvments on MC will be added in later versions. -->
+			<param name="type" value="0"/> <!-- 1: low power; 0 high performance -->
+			<param name="mc_clock" value="1848"/><!--DIMM IO bus clock rate MHz DDR2-400 for Niagara 1--> 
+			<param name="peak_transfer_rate" value="29568"/><!--MB/S  Syed: GTX 470 has 177.4GB/s mem transfer rate with 6 MCs -->
+			<param name="block_size" value="64"/><!--B-->
+			<param name="number_mcs" value="6"/><!-- 6 GDDR5 memory controllers  -->
+			<!-- current McPAT only supports homogeneous memory controllers -->
+			<param name="memory_channels_per_mc" value="2"/>
+			<param name="number_ranks" value="1"/>
+			<param name="withPHY" value="0"/>
+			<!-- # of ranks of each channel-->
+			<param name="req_window_size_per_channel" value="16"/>
+			<param name="IO_buffer_size_per_channel" value="16"/>
+			<param name="databus_width" value="32"/>
+			<param name="addressbus_width" value="32"/>
+			<param name="PRT_entries" value="32"/>
+			<!-- # of empirical DRAM model parameter -->
+			<param name="dram_cmd_coeff" value="0"/>
+			<param name="dram_act_coeff" value="0"/>
+			<param name="dram_nop_coeff" value="0"/>
+			<param name="dram_activity_coeff" value="0"/>
+			<param name="dram_pre_coeff" value="3.8475e-8f"/>
+			<param name="dram_rd_coeff" value="7.74707143e-8f"/>
+			<param name="dram_wr_coeff" value="3.54664286e-8f"/>
+			<param name="dram_req_coeff" value="0"/>
+			<param name="dram_const_coeff" value="0"/>
+
+			<!-- McPAT will add the control bus width to the addressbus width automatically -->
+			<stat name="memory_accesses" value="memory_accesses_match_mcpat"/>
+			<stat name="memory_reads" value="memory_reads_match_mcpat"/>
+			<stat name="memory_writes" value="memory_writes_match_mcpat"/>
+			<!-- McPAT does not track individual mc, instead, it takes the total accesses and calculate 
+			the average power per MC or per channel. This is sufficent for most application. 
+			Further trackdown can be easily added in later versions. -->  			
+		</component>
+<!--**********************************************************************-->
+		<component id="system.niu" name="niu">
+			<!-- On chip 10Gb Ethernet NIC, including XAUI Phy and MAC controller  -->
+			<!-- For a minimum IP packet size of 84B at 10Gb/s, a new packet arrives every 67.2ns. 
+				 the low bound of clock rate of a 10Gb MAC is 150Mhz -->
+			<param name="type" value="0"/> <!-- 1: low power; 0 high performance -->
+			<param name="clockrate" value="350"/>
+			<param name="number_units" value="0"/> <!-- unlike PCIe and memory controllers, each Ethernet controller only have one port -->
+			<stat name="duty_cycle" value="1.0"/> <!-- achievable max load <= 1.0 -->
+			<stat name="total_load_perc" value="0.7"/> <!-- ratio of total achived load to total achivable bandwidth  -->
+			<!-- McPAT does not track individual nic, instead, it takes the total accesses and calculate 
+			the average power per nic or per channel. This is sufficent for most application. -->  			
+		</component>
+<!--**********************************************************************-->
+		<component id="system.pcie" name="pcie">
+			<!-- On chip PCIe controller, including Phy-->
+			<!-- For a minimum PCIe packet size of 84B at 8Gb/s per lane (PCIe 3.0), a new packet arrives every 84ns. 
+				 the low bound of clock rate of a PCIe per lane logic is 120Mhz -->
+			<param name="type" value="0"/> <!-- 1: low power; 0 high performance -->
+			<param name="withPHY" value="1"/>
+			<param name="clockrate" value="350"/>
+			<param name="number_units" value="0"/>
+			<param name="num_channels" value="8"/> <!-- 2 ,4 ,8 ,16 ,32 -->
+			<stat name="duty_cycle" value="1.0"/> <!-- achievable max load <= 1.0 -->
+			<stat name="total_load_perc" value="0.7"/> <!-- Percentage of total achived load to total achivable bandwidth  -->
+			<!-- McPAT does not track individual pcie controllers, instead, it takes the total accesses and calculate 
+			the average power per pcie controller or per channel. This is sufficent for most application. -->  			
+		</component>
+<!--**********************************************************************-->
+		<component id="system.flashc" name="flashc">
+		    <param name="number_flashcs" value="0"/>
+			<param name="type" value="1"/> <!-- 1: low power; 0 high performance -->
+            <param name="withPHY" value="1"/>
+			<param name="peak_transfer_rate" value="200"/><!--Per controller sustainable reak rate MB/S -->
+			<stat name="duty_cycle" value="1.0"/> <!-- achievable max load <= 1.0 -->
+			<stat name="total_load_perc" value="0.7"/> <!-- Percentage of total achived load to total achivable bandwidth  -->
+			<!-- McPAT does not track individual flash controller, instead, it takes the total accesses and calculate 
+			the average power per fc or per channel. This is sufficent for most application -->  			
+		</component>
+<!--**********************************************************************-->
+
+		</component>
+</component>
\ No newline at end of file
diff --git a/configs/tested-cfgs/SM6_TITANX/accelwattch_ptx_sim_alt.xml b/configs/tested-cfgs/SM6_TITANX/accelwattch_ptx_sim_alt.xml
new file mode 100644
index 0000000..0c6f211
--- /dev/null
+++ b/configs/tested-cfgs/SM6_TITANX/accelwattch_ptx_sim_alt.xml
@@ -0,0 +1,623 @@
+<?xml version="1.0" ?>
+<component id="root" name="root">
+	<component id="system" name="system">
+<!-- Copyright (c) 2018-2021, Vijay Kandiah, Junrui Pan, Mahmoud Khairy, Scott Peverelle, Timothy Rogers, Tor M. Aamodt, Nikos Hardavellas
+Northwestern University, Purdue University, The University of British Columbia
+All rights reserved.
+
+Redistribution and use in source and binary forms, with or without
+modification, are permitted provided that the following conditions are met:
+
+1. Redistributions of source code must retain the above copyright notice, this
+   list of conditions and the following disclaimer;
+2. Redistributions in binary form must reproduce the above copyright notice,
+   this list of conditions and the following disclaimer in the documentation
+   and/or other materials provided with the distribution;
+3. Neither the names of Northwestern University, Purdue University,
+   The University of British Columbia nor the names of their contributors
+   may be used to endorse or promote products derived from this software
+   without specific prior written permission.
+
+THIS SOFTWARE IS PROVIDED BY THE COPYRIGHT HOLDERS AND CONTRIBUTORS "AS IS"
+AND ANY EXPRESS OR IMPLIED WARRANTIES, INCLUDING, BUT NOT LIMITED TO, THE
+IMPLIED WARRANTIES OF MERCHANTABILITY AND FITNESS FOR A PARTICULAR PURPOSE
+ARE DISCLAIMED. IN NO EVENT SHALL THE COPYRIGHT HOLDER OR CONTRIBUTORS BE
+LIABLE FOR ANY DIRECT, INDIRECT, INCIDENTAL, SPECIAL, EXEMPLARY, OR
+CONSEQUENTIAL DAMAGES (INCLUDING, BUT NOT LIMITED TO, PROCUREMENT OF
+SUBSTITUTE GOODS OR SERVICES; LOSS OF USE, DATA, OR PROFITS; OR BUSINESS
+INTERRUPTION) HOWEVER CAUSED AND ON ANY THEORY OF LIABILITY, WHETHER IN
+CONTRACT, STRICT LIABILITY, OR TORT (INCLUDING NEGLIGENCE OR OTHERWISE)
+ARISING IN ANY WAY OUT OF THE USE OF THIS SOFTWARE, EVEN IF ADVISED OF THE
+POSSIBILITY OF SUCH DAMAGE. -->
+
+		<!-- DYNAMIC Power Activity Factors -->
+
+		<param name="TOT_INST" value="2" /> <!--Instruction Buffer Activity Factor(Total Warp Instructions)-->
+		<param name="FP_INT" value="4.57" /> <!--Scheduler Activity Factor(Non-Memory Warp Instructons)-->
+		<param name="IC_H" value="8.827711067" /> <!--Instruction Cache Hits -->
+		<param name="IC_M" value="8.827711067" /> <!--Instruction Cache Misses-->
+		<param name="DC_RH" value="8.545163843" /> <!--L1 Data Cache Read Hits--> 
+		<param name="DC_RM" value="8.545163843" /> <!--L1 Data Cache Read Misses-->
+		<param name="DC_WH" value="8.545163843" /> <!--L1 Data Cache Write Hits-->
+		<param name="DC_WM" value="8.545163843" /> <!--L1 Data Cache Write Misses-->
+		<param name="CC_H" value="0.65916315" /> <!--Constant Cache Hits-->
+		<param name="CC_M" value="0.73418985" /> <!--Constant Cache Misses-->
+		<param name="SHRD_ACC" value="1.763326296" /> <!--Shared Memory Accesses-->
+		<param name="REG_RD" value="0.126123699" /> <!--Register Reads-->
+		<param name="REG_WR" value="0.126123699" /> <!--Register Writes-->
+		<param name="INT_ACC" value="2.851008299" /> <!--Integer ALU Accesses-->
+		<param name="FP_ACC" value="0.723984758" /> <!--FPU Accesses-->
+		<param name="DP_ACC" value="0.723979435" /> <!--Integer Accesses-->
+		<param name="INT_MUL_ACC" value="0.119939033" /> <!--Integer MUL Accesses-->
+		<param name="FP_MUL_ACC" value="0.147036868" /> <!--FP MUL Accesses-->
+		<param name="FP_SQRT_ACC" value="1.234782354" /> <!--SFU: sqrt Accesses-->
+		<param name="FP_LG_ACC" value="0.594393568" /> <!--SFU: log Accesses-->
+		<param name="FP_SIN_ACC" value="0.147037283" /> <!--SFU: sin/cos Accesses-->
+		<param name="FP_EXP_ACC" value="0.920933945" /> <!--SFU: exponent Accesses-->
+		<param name="DP_MUL_ACC" value="0.18425577" /> <!--DP MUL Accesses-->
+		<param name="TENSOR_ACC" value="1.656666667" /> <!--Tensor Accesses-->
+		<param name="TEX_ACC" value="0.147036868" /> <!--Texture Unit Accesses-->
+		<param name="MEM_RD" value="0.03058335" /> <!--DRAM Reads-->
+		<param name="MEM_WR" value="0.03058335" /> <!--DRAM Writes-->
+		<param name="MEM_PRE" value="0.03058335" /> <!--DRAM Precharge-->
+		<param name="L2_RH" value="2.032318132" /> <!--L2 Data Cache Read Hits--> 
+		<param name="L2_RM" value="2.032318132" /> <!--L2 Data Cache Read Misses-->
+		<param name="L2_WH" value="2.032318132" /> <!--L2 Data Cache Write Hits-->
+		<param name="L2_WM" value="2.032318132" /> <!--L2 Data Cache Write Misses-->
+		<param name="NOC_A" value="70.15055938" /> <!--Interconnect Network Accesses-->
+		<param name="PIPE_A" value="0.01" /> <!--Pipeline Accesses-->
+
+		<!-- PTX Model specific DYNAMIC Power Activity Factors-->
+
+		<param name="TC_H" value="0.1" /> <!--Texture Cache Hits-->
+		<param name="TC_M" value="0.1" /> <!--Texture Cache Misses-->
+		<param name="INT_MUL24_ACC" value="0.235290825" /> <!--Integer 24-bit MUL Accesses-->
+		<param name="INT_MUL32_ACC" value="0.250616643" /> <!--Integer 32-bit MUL Accesses-->
+		<param name="INT_DIV_ACC" value="5.327155759" /> <!--Integer DIV Accesses-->
+		<param name="FP_DIV_ACC" value="4.992722677" /> <!--FP DIV Accesses-->
+		<param name="DP_DIV_ACC" value="26.46013946" /> <!--DP DIV Accesses-->
+
+		<!-- STATIC & CONSTANT Power -->
+
+		<param name="constant_power" value="32.32522272" /> <!--Constant power-->
+		<param name="idle_core_power" value="0.28279166"/> <!--Idle SM power-->
+
+		<param name="static_cat1_flane" value="15.29035866"/> <!--INT (ADD+MUL) First Lane Activation Power-->
+		<param name="static_cat1_addlane" value="0.586233603"/> <!--INT (ADD+MUL) Additional Lane Activation Power-->
+
+		<param name="static_cat2_flane" value="18.6179906"/> <!--INT+FP First Lane Activation Power-->
+		<param name="static_cat2_addlane" value="0.645228013"/> <!--INT+FP Additional Lane Activation Power-->
+
+		<param name="static_cat3_flane" value="19.10017723"/> <!--INT+FP+DP First Lane Activation Power-->
+		<param name="static_cat3_addlane" value="0.726863055"/> <!--INT+FP+DP Additional Lane Activation Power-->
+
+		<param name="static_cat4_flane" value="18.55029744"/> <!--INT+FP+SFU First Lane Activation Power-->
+		<param name="static_cat4_addlane" value="0.6099397"/> <!--INT+FP+SFU Additional Lane Activation Power-->
+
+		<param name="static_cat5_flane" value="14.74826681"/> <!--INT+FP+TEX First Lane Activation Power-->
+		<param name="static_cat5_addlane" value="0.514367937"/> <!--INT+FP+TEX Additional Lane Activation Power-->
+
+		<param name="static_cat6_flane" value="48.94875596"/> <!--INT+FP+TENSOR First Lane Activation Power-->
+		<param name="static_cat6_addlane" value="0.0"/> <!--INT+FP+TENSOR Additional Lane Activation Power-->
+
+		<param name="static_light_flane" value="1.965373811"/> <!--LIGHT_SM First Lane Activation Power-->
+		<param name="static_light_addlane" value="0.003966868"/> <!--LIGHT_SM Additional Lane Activation Power-->
+
+		<param name="static_intadd_flane" value="19.70468506"/> <!--INT ADD First Lane Activation Power-->
+		<param name="static_intadd_addlane" value="0.388578623"/> <!--INT ADD Additional Lane Activation Power-->
+
+		<param name="static_intmul_flane" value="16.64811823"/> <!--INT MUL First Lane Activation Power-->
+		<param name="static_intmul_addlane" value="0.281803166"/> <!--INT MUL Additional Lane Activation Power-->
+
+		<param name="static_geomean_flane" value="17.21745077"/> <!--GEOMEAN First Lane Activation Power-->
+		<param name="static_geomean_addlane" value="0.650630555"/> <!--GEOMEAN Additional Lane Activation Power-->		
+		<param name="static_shared_flane" value="31.40965691"/> <!--Shared Memory First Lane Activation Power-->
+		<param name="static_l1_flane" value="34.79491352"/> <!--L1D First Lane Activation Power-->
+		<param name="static_l2_flane" value="17.30654755"/> <!--L2D ADD+MUL First Lane Activation Power-->
+
+
+		<!-- LEAVE BELOW UNCHANGED! These are parameters used for initial GPUWattch model left untouched -->
+
+
+		<param name="GPU_Architecture" value="1"/><!-- 0-G80; 1-Fermi; others not supported -->
+		<param name="architecture" value="1"/> <!-- fermi:1 quadro:2 other: undefined-->
+		<param name="number_of_L1Directories" value="0"/>
+		<param name="number_of_L2Directories" value="0"/>
+		<param name="number_of_L2s" value="1"/> <!-- This number means how many L2 clusters in each cluster there can be multiple banks/ports -->
+		<param name="number_of_L3s" value="0"/> <!-- This number means how many L3 clusters -->
+		<param name="number_of_NoCs" value="1"/> 
+		<param name="homogeneous_cores" value="1"/><!--1 means homo -->
+		<param name="homogeneous_L2s" value="1"/>
+		<param name="homogeneous_L1Directorys" value="1"/>
+		<param name="homogeneous_L2Directorys" value="1"/>
+		<param name="homogeneous_L3s" value="1"/>
+		<param name="homogeneous_ccs" value="1"/><!--cache coherece hardware -->
+		<param name="homogeneous_NoCs" value="1"/>
+		<param name="core_tech_node" value="23"/><!-- nm -->
+
+		<param name="number_cache_levels" value="2"/>
+		<param name="interconnect_projection_type" value="0"/><!--0: agressive wire technology; 1: conservative wire technology -->
+		<param name="device_type" value="0"/><!--0: HP(High Performance Type); 1: LSTP(Low standby power) 2: LOP (Low Operating Power)  -->
+		<param name="longer_channel_device" value="1"/><!-- 0 no use; 1 use when possible -->
+		<param name="machine_bits" value="32"/>
+		<param name="virtual_address_width" value="32"/>
+		<param name="physical_address_width" value="32"/>
+		<param name="virtual_memory_page_size" value="4096"/>
+
+		<param name="IDLE_CORE_N" value="1"/>
+		<stat name="num_idle_cores" value="0"/><!-- Average Number of idle cores during this period -->
+		<stat name="total_cycles" value="total_cycles_match_mcpat"/>
+		<stat name="idle_cycles" value="idle_cycles_match_mcpat"/>
+		<stat name="busy_cycles"  value="busy_cycles_match_mcpat"/>
+			<!--This page size(B) is complete different from the page size in Main memo secction. this page size is the size of 
+			virtual memory from OS/Archi perspective; the page size in Main memo secction is the actuall physical line in a DRAM bank  -->
+		<!-- *********************** cores ******************* -->
+		<component id="system.core0" name="core0">
+			<!-- Core property -->
+			<param name="clock_rate" value="700"/>
+			<param name="instruction_length" value="32"/>
+			<param name="opcode_width" value="9"/>
+			<!-- address width determins the tag_width in Cache, LSQ and buffers in cache controller 
+			default value is machine_bits, if not set --> 
+			<param name="machine_type" value="1"/><!-- 1 inorder; 0 OOO-->
+			<!-- inorder/OoO -->
+			<param name="number_hardware_threads" value="32"/>
+			<!-- number_instruction_fetch_ports(icache ports) is always 1 in single-thread processor,
+			it only may be more than one in SMT processors. BTB ports always equals to fetch ports since 
+			branch information in consective branch instructions in the same fetch group can be read out from BTB once.--> 
+			<param name="fetch_width" value="1"/>
+			<!-- fetch_width determins the size of cachelines of L1 cache block -->
+			<param name="number_instruction_fetch_ports" value="1"/>
+			<param name="decode_width" value="1"/>
+			<!-- decode_width determins the number of ports of the 
+			renaming table (both RAM and CAM) scheme -->
+			<param name="issue_width" value="2"/>
+			<!-- issue_width determins the number of ports of Issue window and other logic 
+			as in the complexity effective proccessors paper; issue_width==dispatch_width -->
+			<param name="commit_width" value="2"/>
+			<!-- commit_width determins the number of ports of register files -->
+			<param name="fp_issue_width" value="1"/>
+			<param name="prediction_width" value="0"/> 
+			<!-- number of branch instructions can be predicted simultannouesl-->
+			<!-- Current version of McPAT does not distinguish int and floating point pipelines 
+			Theses parameters are reserved for future use.--> 
+			<param name="pipelines_per_core" value="1,1"/>
+			<!--integer_pipeline and floating_pipelines, if the floating_pipelines is 0, then the pipeline is shared-->
+			<param name="pipeline_depth" value="8,8"/>
+			<!-- pipeline depth of int and fp, if pipeline is shared, the second number is the average cycles of fp ops -->
+			<!-- issue and exe unit-->
+			<param name="ALU_per_core" value="32"/>
+			<!-- contains an adder, a shifter, and a logical unit -->
+			<param name="MUL_per_core" value="4"/>
+			<!-- For MUL and Div -->
+			<param name="FPU_per_core" value="32"/>		
+			<!-- buffer between IF and ID stage -->
+			<param name="instruction_buffer_size" value="1"/>
+			<!-- buffer between ID and sche/exe stage -->
+			<param name="decoded_stream_buffer_size" value="1"/>
+			<param name="instruction_window_scheme" value="0"/><!-- 0 PHYREG based, 1 RSBASED-->
+			<!-- McPAT support 2 types of OoO cores, RS based and physical reg based-->
+			<param name="instruction_window_size" value="1"/>
+			<param name="fp_instruction_window_size" value="1"/>
+			<!-- the instruction issue Q as in Alpha 21264; The RS as in Intel P6 -->
+			<param name="ROB_size" value="0"/>
+			<!-- each in-flight instruction has an entry in ROB -->
+			<!-- registers -->
+			<!-- SM parameters  Added by Syed Gilani -->
+			<param name="rf_banks" value="32"/>
+			<param name="simd_width" value="32"/>
+			<param name="collector_units" value="32"/>
+			<param name="core_clock_ratio" value="2"/>
+			<param name="warp_size" value="32"/>
+
+			<param name="archi_Regs_IRF_size" value="65536"/>			
+			<param name="archi_Regs_FRF_size" value="32"/>
+			<!--  if OoO processor, phy_reg number is needed for renaming logic, 
+			renaming logic is for both integer and floating point insts.  -->
+			<param name="phy_Regs_IRF_size" value="32"/>
+			<param name="phy_Regs_FRF_size" value="32"/>
+			<!-- rename logic -->
+			<param name="rename_scheme" value="0"/>
+			<!-- can be RAM based(0) or CAM based(1) rename scheme 
+			RAM-based scheme will have free list, status table;
+			CAM-based scheme have the valid bit in the data field of the CAM 
+			both RAM and CAM need RAM-based checkpoint table, checkpoint_depth=# of in_flight instructions;
+			Detailed RAT Implementation see TR -->
+			<param name="register_windows_size" value="0"/>
+			<!-- how many windows in the windowed register file, sun processors;
+			no register windowing is used when this number is 0 -->
+			<!-- In OoO cores, loads and stores can be issued whether inorder(Pentium Pro) or (OoO)out-of-order(Alpha),
+			They will always try to exeute out-of-order though. -->
+			<param name="LSU_order" value="inorder"/>
+			<param name="store_buffer_size" value="32"/>
+			<!-- By default, in-order cores do not have load buffers -->
+			<param name="load_buffer_size" value="32"/>	
+			<!-- number of ports refer to sustainable concurrent memory accesses --> 
+			<param name="memory_ports" value="2"/>	
+			<!-- max_allowed_in_flight_memo_instructions determins the # of ports of load and store buffer
+			as well as the ports of Dcache which is connected to LSU -->	
+			<!-- dual-pumped Dcache can be used to save the extra read/write ports -->
+			<param name="RAS_size" value="1"/>						
+			<!-- general stats, defines simulation periods;require total, idle, and busy cycles for senity check  -->
+			<!-- please note: if target architecture is X86, then all the instrucions refer to (fused) micro-ops -->
+			<stat name="total_instructions" value="total_instructions_match_mcpat"/>
+			<stat name="int_instructions" value="int_instruction_match_mcpat"/>
+			<stat name="fp_instructions" value="flt_instruction_match_mcpat"/>
+			<stat name="branch_instructions" value="branch_instruction_match_mcpat"/>
+			<stat name="branch_mispredictions" value="0"/>
+			<stat name="load_instructions" value="load_instruction_match_mcpat"/>
+			<stat name="store_instructions" value="store_instruction_match_mcpat"/>
+			<stat name="committed_instructions" value="total_instructions_match_mcpat"/>
+			<stat name="committed_int_instructions" value="int_instruction_match_mcpat"/>
+			<stat name="committed_fp_instructions" value="flt_instruction_match_mcpat"/>
+			<stat name="pipeline_duty_cycle" value="0.6"/><!--<=1, runtime_ipc/peak_ipc; averaged for all cores if homogenous -->
+			<!-- the following cycle stats are used for heterogeneouse cores only, 
+				please ignore them if homogeneouse cores -->
+			<stat name="total_cycles" value="total_cycles_match_mcpat"/>
+		    <stat name="idle_cycles" value="idle_cycles_match_mcpat"/>
+		    <stat name="busy_cycles"  value="busy_cycles_match_mcpat"/>
+			<!-- instruction buffer stats -->
+			<!-- ROB stats, both RS and Phy based OoOs have ROB
+			performance simulator should capture the difference on accesses,
+			otherwise, McPAT has to guess based on number of commited instructions. -->
+			<stat name="ROB_reads" value="263886"/>
+			<stat name="ROB_writes" value="263886"/>
+			<!-- RAT accesses -->
+			<stat name="rename_accesses" value="263886"/>
+			<stat name="fp_rename_accesses" value="263886"/>
+			<!-- decode and rename stage use this, should be total ic - nop -->
+			<!-- Inst window stats -->
+			<stat name="inst_window_reads" value="263886"/>
+			<stat name="inst_window_writes" value="263886"/>
+			<stat name="inst_window_wakeup_accesses" value="263886"/>
+			<stat name="fp_inst_window_reads" value="263886"/>
+			<stat name="fp_inst_window_writes" value="263886"/>
+			<stat name="fp_inst_window_wakeup_accesses" value="263886"/>
+			<!--  RF accesses -->
+			<stat name="int_regfile_reads" value="int_register_read_access_match_mcpat"/>
+			<stat name="float_regfile_reads" value="int_register_write_access_match_mcpat"/>
+			<stat name="int_regfile_writes" value="float_register_read_access_match_mcpat"/>
+			<stat name="float_regfile_writes" value="float_register_write_access_match_mcpat"/>
+			
+			<!-- The following stat is for operand collector power - Added by Syed -->
+			<stat name="non_rf_operands" value="0"/>
+
+			<!-- accesses to the working reg -->
+			<stat name="function_calls" value="0"/>
+			<stat name="context_switches" value="0"/> <!--not used in the McPAT -->
+			<!-- Number of Windowes switches (number of function calls and returns)-->
+			<!-- Alu stats by default, the processor has one FPU that includes the divider and 
+			 multiplier. The fpu accesses should include accesses to multiplier and divider  -->
+			<stat name="ialu_accesses" value="ialu_accesses_match_mcpat"/>			
+			<stat name="fpu_accesses" value="fpu_accesses_match_mcpat"/>
+			<stat name="mul_accesses" value="mul_accesses_match_mcpat"/>
+			<stat name="cdb_alu_accesses" value="0"/>
+			<stat name="cdb_mul_accesses" value="0"/>
+			<stat name="cdb_fpu_accesses" value="0"/>
+			<!-- multiple cycle accesses should be counted multiple times, 
+			otherwise, McPAT can use internal counter for different floating point instructions 
+			to get final accesses. But that needs detailed info for floating point inst mix -->
+			<!--  currently the performance simulator should 
+			make sure all the numbers are final numbers, 
+			including the explicit read/write accesses, 
+			and the implicite accesses such as replacements and etc.
+			Future versions of McPAT may be able to reason the implicite access
+			based on param and stats of last level cache
+			The same rule applies to all cache access stats too!  -->
+			<!-- following is AF for max power computation. 
+				Do not change them, unless you understand them-->
+			<stat name="IFU_duty_cycle" value="0.25"/>			
+			<stat name="LSU_duty_cycle" value="0.25"/>
+			<stat name="MemManU_I_duty_cycle" value="1"/>
+			<stat name="MemManU_D_duty_cycle" value="0.25"/>
+			<stat name="ALU_duty_cycle" value="0.9"/>
+			<stat name="MUL_duty_cycle" value="0.5"/>
+			<stat name="FPU_duty_cycle" value="1"/><!-- FPU numbers are already average -->
+			<stat name="ALU_cdb_duty_cycle" value="0.9"/>
+			<stat name="MUL_cdb_duty_cycle" value="0.5"/>
+			<stat name="FPU_cdb_duty_cycle" value="15"/>	
+			<component id="system.core0.predictor" name="PBT">
+				<!-- branch predictor; tournament predictor see Alpha implementation -->
+				<param name="local_predictor_size" value="10,3"/>
+				<param name="local_predictor_entries" value="1024"/>
+				<param name="global_predictor_entries" value="4096"/>
+				<param name="global_predictor_bits" value="2"/>
+				<param name="chooser_predictor_entries" value="4096"/>
+				<param name="chooser_predictor_bits" value="2"/>
+				<!-- These parameters can be combined like below in next version
+				<param name="load_predictor" value="10,3,1024"/>
+				<param name="global_predictor" value="4096,2"/>
+				<param name="predictor_chooser" value="4096,2"/>
+				-->
+			</component>
+			<component id="system.core0.itlb" name="itlb">
+				<param name="number_entries" value="1"/>
+				<stat name="total_accesses" value="0"/>
+				<stat name="total_misses" value="0"/>
+				<stat name="conflicts" value="0"/>	
+				<!-- there is no write requests to itlb although writes happen to itlb after miss, 
+				which is actually a replacement -->
+			</component>
+			<component id="system.core0.icache" name="icache">
+				<!-- there is no write requests to itlb although writes happen to it after miss, 
+				which is actually a replacement -->
+				<param name="icache_config" value="16384,128,4,1,1,3,8,0"/>
+				<!-- the parameters are capacity,block_width, associativity, bank, throughput w.r.t. core clock, latency w.r.t. core clock,output_width, cache policy -->
+				<!-- cache_policy;//0 no write or write-though with non-write allocate;1 write-back with write-allocate -->
+				<param name="buffer_sizes" value="16, 16, 16,0"/>
+				<!-- cache controller buffer sizes: miss_buffer_size(MSHR),fill_buffer_size,prefetch_buffer_size,wb_buffer_size--> 
+				<stat name="read_accesses" value="total_instructions_match_mcpat"/>
+				<stat name="read_misses" value="0"/>
+				<stat name="conflicts" value="0"/>				
+			</component>
+			<component id="system.core0.dtlb" name="dtlb">
+				<param name="number_entries" value="1"/>
+				<stat name="total_accesses" value="0"/>
+				<stat name="total_misses" value="0"/>
+				<stat name="conflicts" value="0"/>	
+			</component>
+			<component id="system.core0.ccache" name="ccache">
+			        <!-- all the buffer related are optional -->
+				<param name="ccache_config" value="16384,64,2,1,1,3,8,0"/>
+				<param name="buffer_sizes" value="16, 16, 16, 0"/>
+				<!-- cache controller buffer sizes: miss_buffer_size(MSHR),fill_buffer_size,prefetch_buffer_size,wb_buffer_size-->	
+				<stat name="read_accesses" value="ccache_read_accesses_match_mcpat"/>
+				<stat name="write_accesses" value="0"/>
+				<stat name="read_misses" value="ccache_read_misses_match_mcpat"/>
+				<stat name="write_misses" value="0"/>
+				<stat name="conflicts" value="0"/>	
+			</component>
+			<component id="system.core0.tcache" name="tcache">
+			        <!-- all the buffer related are optional -->
+				<param name="tcache_config" value="49152,128,8,1,1,3,8,0"/>
+				<param name="buffer_sizes" value="16, 16, 16, 0"/>
+				<!-- cache controller buffer sizes: miss_buffer_size(MSHR),fill_buffer_size,prefetch_buffer_size,wb_buffer_size-->	
+				<stat name="read_accesses" value="tcache_read_accesses_match_mcpat"/>
+				<stat name="write_accesses" value="0"/>
+				<stat name="read_misses" value="tcache_read_misses_match_mcpat"/>
+				<stat name="write_misses" value="0"/>
+				<stat name="conflicts" value="0"/>	
+			</component>
+      <!--model the shared memory by mimicing dcache-->
+			<component id="system.core0.sharedmemory" name="sharedmemory">
+			        <!-- all the buffer related are optional -->
+				<param name="sharedmemory_config" value="98304,16,1,16,1,3,16,0"/>
+				<!-- the parameters are capacity,block_width, associativity, bank, throughput w.r.t. core clock, latency w.r.t. core clock,output_width, cache policy -->
+				<param name="buffer_sizes" value="16, 16, 16, 16"/>
+				<!-- cache controller buffer sizes: miss_buffer_size(MSHR),fill_buffer_size,prefetch_buffer_size,wb_buffer_size-->	
+				<stat name="read_accesses" value="sharedmemory_read_access_match_mcpat"/>
+				<stat name="write_accesses" value="sharedmemory_write_access_match_mcpat"/>
+				<stat name="read_misses" value="0"/>
+				<stat name="write_misses" value="0"/>
+				<stat name="conflicts" value="0"/>	
+			</component>
+			<component id="system.core0.dcache" name="dcache">
+			        <!-- all the buffer related are optional -->
+				<param name="dcache_config" value="16384,32,4,1,1,3,8,0"/>
+				<param name="buffer_sizes" value="16, 16, 16, 0"/>
+				<!-- cache controller buffer sizes: miss_buffer_size(MSHR),fill_buffer_size,prefetch_buffer_size,wb_buffer_size-->	
+				<stat name="read_accesses" value="dcache_read_access_match_mcpat"/>
+				<stat name="write_accesses" value="dcache_write_access_match_mcpat"/>
+				<stat name="read_misses" value="dcache_read_miss_match_mcpat"/>
+				<stat name="write_misses" value="dcache_write_miss_match_mcpat"/>
+				<stat name="conflicts" value="0"/>	
+			</component>
+			<component id="system.core0.BTB" name="BTB">
+			        <!-- all the buffer related are optional -->
+				<param name="BTB_config" value="8192,4,2,1, 1,3"/>
+				<!-- the parameters are capacity,block_width,associativity,bank, throughput w.r.t. core clock, latency w.r.t. core clock,-->
+			</component>
+	</component>
+		<component id="system.L1Directory0" name="L1Directory0">
+				<param name="Directory_type" value="0"/>
+			    <!--0 cam based shadowed tag. 1 directory cache -->	
+				<param name="Dir_config" value="2048,1,0,1, 4, 4,8"/>
+				<!-- the parameters are capacity,block_width, associativity,bank, throughput w.r.t. core clock, latency w.r.t. core clock,-->
+			    <param name="buffer_sizes" value="8, 8, 8, 8"/>	
+				<!-- all the buffer related are optional -->
+			    <param name="clockrate" value="1400"/>
+				<param name="ports" value="1,1,1"/>
+				<!-- number of r, w, and rw search ports -->
+				<param name="device_type" value="0"/>
+				<!-- altough there are multiple access types, 
+				Performance simulator needs to cast them into reads or writes
+				e.g. the invalidates can be considered as writes -->
+				<stat name="read_accesses" value="800000"/>
+				<stat name="write_accesses" value="27276"/>
+				<stat name="read_misses" value="1632"/>
+				<stat name="write_misses" value="183"/>
+				<stat name="conflicts" value="20"/>	
+				<stat name="duty_cycle" value="0.45"/>	
+		</component>
+		<component id="system.L2Directory0" name="L2Directory0">
+				<param name="Directory_type" value="1"/>
+			    <!--0 cam based shadowed tag. 1 directory cache -->	
+				<param name="Dir_config" value="1048576,16,16,1,2, 100"/>
+				<!-- the parameters are capacity,block_width, associativity,bank, throughput w.r.t. core clock, latency w.r.t. core clock,-->
+			    <param name="buffer_sizes" value="8, 8, 8, 8"/>	
+				<!-- all the buffer related are optional -->
+			    <param name="clockrate" value="1400"/>
+				<param name="ports" value="1,1,1"/>
+				<!-- number of r, w, and rw search ports -->
+				<param name="device_type" value="0"/>
+				<!-- altough there are multiple access types, 
+				Performance simulator needs to cast them into reads or writes
+				e.g. the invalidates can be considered as writes -->
+				<stat name="read_accesses" value="0"/>
+				<stat name="write_accesses" value="0"/>
+				<stat name="read_misses" value="0"/>
+				<stat name="write_misses" value="0"/>
+				<stat name="conflicts" value="0"/>
+			    <stat name="duty_cycle" value="0.45"/>		
+		</component>
+		<component id="system.L20" name="L20">
+			<!-- all the buffer related are optional -->
+				<param name="L2_config" value="131072,128,16,1, 4,23, 64, 1"/>
+			    <!-- consider 4-way bank interleaving for Niagara 1 -->
+				<!-- the parameters are capacity,block_width, associativity, bank, throughput w.r.t. core clock, latency w.r.t. core clock,output_width, cache policy -->
+				<param name="buffer_sizes" value="16, 16, 16, 16"/>
+				<!-- cache controller buffer sizes: miss_buffer_size(MSHR),fill_buffer_size,prefetch_buffer_size,wb_buffer_size-->	
+				<param name="clockrate" value="2962"/>
+				<param name="ports" value="1,1,1"/>
+				<!-- number of r, w, and rw ports -->
+				<param name="device_type" value="0"/>
+				<stat name="read_accesses" value="200000"/>
+				<stat name="write_accesses" value="0"/>
+				<stat name="read_misses" value="0"/>
+				<stat name="write_misses" value="0"/>
+				<stat name="conflicts" value="0"/>	
+			    <stat name="duty_cycle" value="0.5"/>	
+		</component>
+		
+<!--**********************************************************************-->
+<component id="system.L30" name="L30">
+				<param name="L3_config" value="1048576,64,16,1, 2,100, 64,1"/>
+				<!-- the parameters are capacity,block_width, associativity, bank, throughput w.r.t. core clock, latency w.r.t. core clock,output_width, cache policy -->
+				<param name="clockrate" value="3500"/>
+				<param name="ports" value="1,1,1"/>
+				<!-- number of r, w, and rw ports -->
+				<param name="device_type" value="0"/>
+				<param name="buffer_sizes" value="16, 16, 16, 16"/>
+				<!-- cache controller buffer sizes: miss_buffer_size(MSHR),fill_buffer_size,prefetch_buffer_size,wb_buffer_size-->	
+				<stat name="read_accesses" value="58824"/>
+				<stat name="write_accesses" value="27276"/>
+				<stat name="read_misses" value="1632"/>
+				<stat name="write_misses" value="183"/>
+				<stat name="conflicts" value="0"/>	
+	            <stat name="duty_cycle" value="0.35"/>	
+		</component>
+
+
+<!--**********************************************************************-->
+		<component id="system.NoC0" name="noc0">
+			<param name="clockrate" value="700"/>
+			<param name="type" value="1"/>
+			<!-- 1 NoC, O bus -->
+			<param name="horizontal_nodes" value="2"/>
+			<param name="vertical_nodes" value="1"/>
+			<param name="has_global_link" value="0"/>
+			<!-- 1 has global link, 0 does not have global link -->
+			<param name="link_throughput" value="1"/><!--w.r.t clock -->
+			<param name="link_latency" value="1"/><!--w.r.t clock -->
+			<!-- througput >= latency -->
+			<!-- Router architecture -->
+			<param name="input_ports" value="6"/>
+			<param name="output_ports" value="6"/>
+			<param name="virtual_channel_per_port" value="1"/>
+			<!-- input buffer; in classic routers only input ports need buffers -->
+			<param name="flit_bits" value="32"/>
+			<param name="input_buffer_entries_per_vc" value="1"/><!--VCs within the same ports share input buffers whose size is propotional to the number of VCs-->
+			<param name="chip_coverage" value="1"/>
+			<!-- When multiple NOC present, one NOC will cover part of the whole chip. chip_coverage <=1 -->
+			<stat name="total_accesses" value="0"/>
+			<!-- This is the number of total accesses within the whole network not for each router -->
+			<stat name="duty_cycle" value="0.6"/>
+		</component>	
+<!--**********************************************************************-->
+<!--**********************************************************************-->
+
+		<component id="system.mem" name="mem">
+			<!-- Main memory property -->
+			<param name="mem_tech_node" value="23"/>
+			<param name="device_clock" value="200"/><!--MHz, this is clock rate of the actual memory device, not the FSB -->
+			<param name="peak_transfer_rate" value="3200"/><!--MB/S-->
+			<param name="internal_prefetch_of_DRAM_chip" value="4"/>
+			<!-- 2 for DDR, 4 for DDR2, 8 for DDR3...-->
+			<!-- the device clock, peak_transfer_rate, and the internal prefetch decide the DIMM property -->
+			<!-- above numbers can be easily found from Wikipedia -->
+			<param name="capacity_per_channel" value="4096"/> <!-- MB -->
+			<!-- capacity_per_Dram_chip=capacity_per_channel/number_of_dimms/number_ranks/Dram_chips_per_rank
+			Current McPAT assumes single DIMMs are used.--> 		
+			<param name="number_ranks" value="2"/>
+			<param name="num_banks_of_DRAM_chip" value="6"/>			
+			<param name="Block_width_of_DRAM_chip" value="64"/> <!-- B -->
+			<param name="output_width_of_DRAM_chip" value="8"/>
+			<!--number of Dram_chips_per_rank=" 72/output_width_of_DRAM_chip-->
+			<!--number of Dram_chips_per_rank=" 72/output_width_of_DRAM_chip-->
+			<param name="page_size_of_DRAM_chip" value="8"/> <!-- 8 or 16 -->
+			<param name="burstlength_of_DRAM_chip" value="8"/>
+			<stat name="memory_accesses" value="1052"/>
+			<stat name="memory_reads" value="1052"/>
+			<stat name="memory_writes" value="1052"/>									
+		</component>
+		<component id="system.mc" name="mc">
+			<!-- Memeory controllers are for DDR(2,3...) DIMMs -->
+			<!-- current version of McPAT uses published values for base parameters of memory controller
+			improvments on MC will be added in later versions. -->
+			<param name="type" value="0"/> <!-- 1: low power; 0 high performance -->
+			<param name="mc_clock" value="1848"/><!--DIMM IO bus clock rate MHz DDR2-400 for Niagara 1--> 
+			<param name="peak_transfer_rate" value="29568"/><!--MB/S  Syed: GTX 470 has 177.4GB/s mem transfer rate with 6 MCs -->
+			<param name="block_size" value="64"/><!--B-->
+			<param name="number_mcs" value="6"/><!-- 6 GDDR5 memory controllers  -->
+			<!-- current McPAT only supports homogeneous memory controllers -->
+			<param name="memory_channels_per_mc" value="2"/>
+			<param name="number_ranks" value="1"/>
+			<param name="withPHY" value="0"/>
+			<!-- # of ranks of each channel-->
+			<param name="req_window_size_per_channel" value="16"/>
+			<param name="IO_buffer_size_per_channel" value="16"/>
+			<param name="databus_width" value="32"/>
+			<param name="addressbus_width" value="32"/>
+			<param name="PRT_entries" value="32"/>
+			<!-- # of empirical DRAM model parameter -->
+			<param name="dram_cmd_coeff" value="0"/>
+			<param name="dram_act_coeff" value="0"/>
+			<param name="dram_nop_coeff" value="0"/>
+			<param name="dram_activity_coeff" value="0"/>
+			<param name="dram_pre_coeff" value="3.8475e-8f"/>
+			<param name="dram_rd_coeff" value="7.74707143e-8f"/>
+			<param name="dram_wr_coeff" value="3.54664286e-8f"/>
+			<param name="dram_req_coeff" value="0"/>
+			<param name="dram_const_coeff" value="0"/>
+
+			<!-- McPAT will add the control bus width to the addressbus width automatically -->
+			<stat name="memory_accesses" value="memory_accesses_match_mcpat"/>
+			<stat name="memory_reads" value="memory_reads_match_mcpat"/>
+			<stat name="memory_writes" value="memory_writes_match_mcpat"/>
+			<!-- McPAT does not track individual mc, instead, it takes the total accesses and calculate 
+			the average power per MC or per channel. This is sufficent for most application. 
+			Further trackdown can be easily added in later versions. -->  			
+		</component>
+<!--**********************************************************************-->
+		<component id="system.niu" name="niu">
+			<!-- On chip 10Gb Ethernet NIC, including XAUI Phy and MAC controller  -->
+			<!-- For a minimum IP packet size of 84B at 10Gb/s, a new packet arrives every 67.2ns. 
+				 the low bound of clock rate of a 10Gb MAC is 150Mhz -->
+			<param name="type" value="0"/> <!-- 1: low power; 0 high performance -->
+			<param name="clockrate" value="350"/>
+			<param name="number_units" value="0"/> <!-- unlike PCIe and memory controllers, each Ethernet controller only have one port -->
+			<stat name="duty_cycle" value="1.0"/> <!-- achievable max load <= 1.0 -->
+			<stat name="total_load_perc" value="0.7"/> <!-- ratio of total achived load to total achivable bandwidth  -->
+			<!-- McPAT does not track individual nic, instead, it takes the total accesses and calculate 
+			the average power per nic or per channel. This is sufficent for most application. -->  			
+		</component>
+<!--**********************************************************************-->
+		<component id="system.pcie" name="pcie">
+			<!-- On chip PCIe controller, including Phy-->
+			<!-- For a minimum PCIe packet size of 84B at 8Gb/s per lane (PCIe 3.0), a new packet arrives every 84ns. 
+				 the low bound of clock rate of a PCIe per lane logic is 120Mhz -->
+			<param name="type" value="0"/> <!-- 1: low power; 0 high performance -->
+			<param name="withPHY" value="1"/>
+			<param name="clockrate" value="350"/>
+			<param name="number_units" value="0"/>
+			<param name="num_channels" value="8"/> <!-- 2 ,4 ,8 ,16 ,32 -->
+			<stat name="duty_cycle" value="1.0"/> <!-- achievable max load <= 1.0 -->
+			<stat name="total_load_perc" value="0.7"/> <!-- Percentage of total achived load to total achivable bandwidth  -->
+			<!-- McPAT does not track individual pcie controllers, instead, it takes the total accesses and calculate 
+			the average power per pcie controller or per channel. This is sufficent for most application. -->  			
+		</component>
+<!--**********************************************************************-->
+		<component id="system.flashc" name="flashc">
+		    <param name="number_flashcs" value="0"/>
+			<param name="type" value="1"/> <!-- 1: low power; 0 high performance -->
+            <param name="withPHY" value="1"/>
+			<param name="peak_transfer_rate" value="200"/><!--Per controller sustainable reak rate MB/S -->
[...]
-  kernel_tot_power_without_dram += sample_power_without_dram;
-
-  kernel_power.avg = kernel_tot_power / kernel_sample_count;
-  kernel_power_without_dram.avg = kernel_tot_power_without_dram / kernel_sample_count;
-  for (unsigned ind = 0; ind < num_pwr_cmps; ++ind) {
-    kernel_cmp_pwr[ind].avg += (double)sample_cmp_pwr[ind];
-  }
-
-  for (unsigned ind = 0; ind < num_perf_counters; ++ind) {
-    kernel_cmp_perf_counters[ind].avg += (double)sample_perf_counters[ind];
-  }
-
-  // Max Power
-  if (sample_power > kernel_power.max) {
-    kernel_power.max = sample_power;
-    for (unsigned ind = 0; ind < num_pwr_cmps; ++ind) {
-      kernel_cmp_pwr[ind].max = (double)sample_cmp_pwr[ind];
-    }
-    for (unsigned ind = 0; ind < num_perf_counters; ++ind) {
-      kernel_cmp_perf_counters[ind].max = sample_perf_counters[ind];
-    }
-  }
-
-  // Max power without DRAM power
-  if (sample_power_without_dram > kernel_power_without_dram.max) {
-    kernel_power_without_dram.max = sample_power_without_dram;
-  }
-
-  // Min Power
-  if (sample_power < kernel_power.min || (kernel_power.min == 0)) {
-    kernel_power.min = sample_power;
-    for (unsigned ind = 0; ind < num_pwr_cmps; ++ind) {
-      kernel_cmp_pwr[ind].min = (double)sample_cmp_pwr[ind];
-    }
-    for (unsigned ind = 0; ind < num_perf_counters; ++ind) {
-      kernel_cmp_perf_counters[ind].min = sample_perf_counters[ind];
-    }
-  }
-
-  if (sample_power_without_dram < kernel_power_without_dram.min || (kernel_power_without_dram.min == 0)) {
-    kernel_power_without_dram.min = sample_power_without_dram;
-  }
-
-  gpu_tot_power.avg = (gpu_tot_power.avg + sample_power);
-  gpu_tot_power.max =
-      (sample_power > gpu_tot_power.max) ? sample_power : gpu_tot_power.max;
-  gpu_tot_power.min =
-      ((sample_power < gpu_tot_power.min) || (gpu_tot_power.min == 0))
-          ? sample_power
-          : gpu_tot_power.min;
-  gpu_tot_power_without_dram.avg = (gpu_tot_power_without_dram.avg + sample_power_without_dram);
-  gpu_tot_power_without_dram.max =
-      (sample_power_without_dram > gpu_tot_power_without_dram.max) ? sample_power_without_dram : gpu_tot_power_without_dram.max;
-  gpu_tot_power_without_dram.min =
-      ((sample_power_without_dram < gpu_tot_power_without_dram.min) || (gpu_tot_power_without_dram.min == 0))
-          ? sample_power_without_dram
-          : gpu_tot_power_without_dram.min;
-}
-
-void gpgpu_sim_wrapper::print_trace_files() {
-  open_files();
-
-  for (unsigned i = 0; i < num_perf_counters; ++i) {
-    gzprintf(metric_trace_file, "%f,", sample_perf_counters[i]);
-  }
-  gzprintf(metric_trace_file, "\n");
-
-  gzprintf(power_trace_file, "%f,", proc_power);
-  for (unsigned i = 0; i < num_pwr_cmps; ++i) {
-    gzprintf(power_trace_file, "%f,", sample_cmp_pwr[i]);
-  }
-  gzprintf(power_trace_file, "\n");
-
-  close_files();
-}
-
-void gpgpu_sim_wrapper::update_coefficients() {
-  initpower_coeff[FP_INT] = proc->cores[0]->get_coefficient_fpint_insts();
-  effpower_coeff[FP_INT] =
-      initpower_coeff[FP_INT] * p->sys.scaling_coefficients[FP_INT];
-
-  initpower_coeff[TOT_INST] = proc->cores[0]->get_coefficient_tot_insts();
-  effpower_coeff[TOT_INST] =
-      initpower_coeff[TOT_INST] * p->sys.scaling_coefficients[TOT_INST];
-
-  initpower_coeff[REG_RD] =
-      proc->cores[0]->get_coefficient_regreads_accesses() *
-      (proc->cores[0]->exu->rf_fu_clockRate / proc->cores[0]->exu->clockRate);
-  initpower_coeff[REG_WR] =
-      proc->cores[0]->get_coefficient_regwrites_accesses() *
-      (proc->cores[0]->exu->rf_fu_clockRate / proc->cores[0]->exu->clockRate);
-  initpower_coeff[NON_REG_OPs] =
-      proc->cores[0]->get_coefficient_noregfileops_accesses() *
-      (proc->cores[0]->exu->rf_fu_clockRate / proc->cores[0]->exu->clockRate);
-  effpower_coeff[REG_RD] =
-      initpower_coeff[REG_RD] * p->sys.scaling_coefficients[REG_RD];
-  effpower_coeff[REG_WR] =
-      initpower_coeff[REG_WR] * p->sys.scaling_coefficients[REG_WR];
-  effpower_coeff[NON_REG_OPs] =
-      initpower_coeff[NON_REG_OPs] * p->sys.scaling_coefficients[NON_REG_OPs];
-
-  initpower_coeff[IC_H] = proc->cores[0]->get_coefficient_icache_hits();
-  initpower_coeff[IC_M] = proc->cores[0]->get_coefficient_icache_misses();
-  effpower_coeff[IC_H] =
-      initpower_coeff[IC_H] * p->sys.scaling_coefficients[IC_H];
-  effpower_coeff[IC_M] =
-      initpower_coeff[IC_M] * p->sys.scaling_coefficients[IC_M];
-
-  initpower_coeff[CC_H] = (proc->cores[0]->get_coefficient_ccache_readhits() +
-                           proc->get_coefficient_readcoalescing());
-  initpower_coeff[CC_M] = (proc->cores[0]->get_coefficient_ccache_readmisses() +
-                           proc->get_coefficient_readcoalescing());
-  effpower_coeff[CC_H] =
-      initpower_coeff[CC_H] * p->sys.scaling_coefficients[CC_H];
-  effpower_coeff[CC_M] =
-      initpower_coeff[CC_M] * p->sys.scaling_coefficients[CC_M];
-
-  initpower_coeff[TC_H] = (proc->cores[0]->get_coefficient_tcache_readhits() +
-                           proc->get_coefficient_readcoalescing());
-  initpower_coeff[TC_M] = (proc->cores[0]->get_coefficient_tcache_readmisses() +
-                           proc->get_coefficient_readcoalescing());
-  effpower_coeff[TC_H] =
-      initpower_coeff[TC_H] * p->sys.scaling_coefficients[TC_H];
-  effpower_coeff[TC_M] =
-      initpower_coeff[TC_M] * p->sys.scaling_coefficients[TC_M];
-
-  initpower_coeff[SHRD_ACC] =
-      proc->cores[0]->get_coefficient_sharedmemory_readhits();
-  effpower_coeff[SHRD_ACC] =
-      initpower_coeff[SHRD_ACC] * p->sys.scaling_coefficients[SHRD_ACC];
-
-  initpower_coeff[DC_RH] = (proc->cores[0]->get_coefficient_dcache_readhits() +
-                            proc->get_coefficient_readcoalescing());
-  initpower_coeff[DC_RM] =
-      (proc->cores[0]->get_coefficient_dcache_readmisses() +
-       proc->get_coefficient_readcoalescing());
-  initpower_coeff[DC_WH] = (proc->cores[0]->get_coefficient_dcache_writehits() +
-                            proc->get_coefficient_writecoalescing());
-  initpower_coeff[DC_WM] =
-      (proc->cores[0]->get_coefficient_dcache_writemisses() +
-       proc->get_coefficient_writecoalescing());
-  effpower_coeff[DC_RH] =
-      initpower_coeff[DC_RH] * p->sys.scaling_coefficients[DC_RH];
-  effpower_coeff[DC_RM] =
-      initpower_coeff[DC_RM] * p->sys.scaling_coefficients[DC_RM];
-  effpower_coeff[DC_WH] =
-      initpower_coeff[DC_WH] * p->sys.scaling_coefficients[DC_WH];
-  effpower_coeff[DC_WM] =
-      initpower_coeff[DC_WM] * p->sys.scaling_coefficients[DC_WM];
-
-  initpower_coeff[L2_RH] = proc->get_coefficient_l2_read_hits();
-  initpower_coeff[L2_RM] = proc->get_coefficient_l2_read_misses();
-  initpower_coeff[L2_WH] = proc->get_coefficient_l2_write_hits();
-  initpower_coeff[L2_WM] = proc->get_coefficient_l2_write_misses();
-  effpower_coeff[L2_RH] =
-      initpower_coeff[L2_RH] * p->sys.scaling_coefficients[L2_RH];
-  effpower_coeff[L2_RM] =
-      initpower_coeff[L2_RM] * p->sys.scaling_coefficients[L2_RM];
-  effpower_coeff[L2_WH] =
-      initpower_coeff[L2_WH] * p->sys.scaling_coefficients[L2_WH];
-  effpower_coeff[L2_WM] =
-      initpower_coeff[L2_WM] * p->sys.scaling_coefficients[L2_WM];
-
-  initpower_coeff[IDLE_CORE_N] =
-      p->sys.idle_core_power * proc->cores[0]->executionTime;
-  effpower_coeff[IDLE_CORE_N] =
-      initpower_coeff[IDLE_CORE_N] * p->sys.scaling_coefficients[IDLE_CORE_N];
-
-  initpower_coeff[PIPE_A] = proc->cores[0]->get_coefficient_duty_cycle();
-  effpower_coeff[PIPE_A] =
-      initpower_coeff[PIPE_A] * p->sys.scaling_coefficients[PIPE_A];
-
-  initpower_coeff[MEM_RD] = proc->get_coefficient_mem_reads();
-  initpower_coeff[MEM_WR] = proc->get_coefficient_mem_writes();
-  initpower_coeff[MEM_PRE] = proc->get_coefficient_mem_pre();
-  effpower_coeff[MEM_RD] =
-      initpower_coeff[MEM_RD] * p->sys.scaling_coefficients[MEM_RD];
-  effpower_coeff[MEM_WR] =
-      initpower_coeff[MEM_WR] * p->sys.scaling_coefficients[MEM_WR];
-  effpower_coeff[MEM_PRE] =
-      initpower_coeff[MEM_PRE] * p->sys.scaling_coefficients[MEM_PRE];
-
-  initpower_coeff[SP_ACC] =
-      proc->cores[0]->get_coefficient_ialu_accesses() *
-      (proc->cores[0]->exu->rf_fu_clockRate / proc->cores[0]->exu->clockRate);
-  ;
-  initpower_coeff[SFU_ACC] = proc->cores[0]->get_coefficient_sfu_accesses();
-  initpower_coeff[FPU_ACC] = proc->cores[0]->get_coefficient_fpu_accesses();
-
-  effpower_coeff[SP_ACC] =
-      initpower_coeff[SP_ACC] * p->sys.scaling_coefficients[SP_ACC];
-  effpower_coeff[SFU_ACC] =
-      initpower_coeff[SFU_ACC] * p->sys.scaling_coefficients[SFU_ACC];
-  effpower_coeff[FPU_ACC] =
-      initpower_coeff[FPU_ACC] * p->sys.scaling_coefficients[FPU_ACC];
-
-  initpower_coeff[NOC_A] = proc->get_coefficient_noc_accesses();
-  effpower_coeff[NOC_A] =
-      initpower_coeff[NOC_A] * p->sys.scaling_coefficients[NOC_A];
-
-  const_dynamic_power =
-      proc->get_const_dynamic_power() / (proc->cores[0]->executionTime);
-
-  for (unsigned i = 0; i < num_perf_counters; i++) {
-    initpower_coeff[i] /= (proc->cores[0]->executionTime);
-    effpower_coeff[i] /= (proc->cores[0]->executionTime);
-  }
-}
-
-void gpgpu_sim_wrapper::update_components_power() {
-  update_coefficients();
-
-  proc_power = proc->rt_power.readOp.dynamic;
-
-  sample_cmp_pwr[IBP] =
-      (proc->cores[0]->ifu->IB->rt_power.readOp.dynamic +
-       proc->cores[0]->ifu->IB->rt_power.writeOp.dynamic +
-       proc->cores[0]->ifu->ID_misc->rt_power.readOp.dynamic +
-       proc->cores[0]->ifu->ID_operand->rt_power.readOp.dynamic +
-       proc->cores[0]->ifu->ID_inst->rt_power.readOp.dynamic) /
-      (proc->cores[0]->executionTime);
-
-  sample_cmp_pwr[ICP] = proc->cores[0]->ifu->icache.rt_power.readOp.dynamic /
-                        (proc->cores[0]->executionTime);
-
-  sample_cmp_pwr[DCP] = proc->cores[0]->lsu->dcache.rt_power.readOp.dynamic /
-                        (proc->cores[0]->executionTime);
-
-  sample_cmp_pwr[TCP] = proc->cores[0]->lsu->tcache.rt_power.readOp.dynamic /
-                        (proc->cores[0]->executionTime);
-
-  sample_cmp_pwr[CCP] = proc->cores[0]->lsu->ccache.rt_power.readOp.dynamic /
-                        (proc->cores[0]->executionTime);
-
-  sample_cmp_pwr[SHRDP] =
-      proc->cores[0]->lsu->sharedmemory.rt_power.readOp.dynamic /
-      (proc->cores[0]->executionTime);
-
-  sample_cmp_pwr[RFP] =
-      (proc->cores[0]->exu->rfu->rt_power.readOp.dynamic /
-       (proc->cores[0]->executionTime)) *
-      (proc->cores[0]->exu->rf_fu_clockRate / proc->cores[0]->exu->clockRate);
-
-  sample_cmp_pwr[SPP] =
-      (proc->cores[0]->exu->exeu->rt_power.readOp.dynamic /
-       (proc->cores[0]->executionTime)) *
-      (proc->cores[0]->exu->rf_fu_clockRate / proc->cores[0]->exu->clockRate);
-
-  sample_cmp_pwr[SFUP] = (proc->cores[0]->exu->mul->rt_power.readOp.dynamic /
-                          (proc->cores[0]->executionTime));
-
-  sample_cmp_pwr[FPUP] = (proc->cores[0]->exu->fp_u->rt_power.readOp.dynamic /
-                          (proc->cores[0]->executionTime));
-
-  sample_cmp_pwr[SCHEDP] = proc->cores[0]->exu->scheu->rt_power.readOp.dynamic /
-                           (proc->cores[0]->executionTime);
-
-  sample_cmp_pwr[L2CP] = (proc->XML->sys.number_of_L2s > 0)
-                             ? proc->l2array[0]->rt_power.readOp.dynamic /
-                                   (proc->cores[0]->executionTime)
-                             : 0;
-
-  sample_cmp_pwr[MCP] = (proc->mc->rt_power.readOp.dynamic -
-                         proc->mc->dram->rt_power.readOp.dynamic) /
-                        (proc->cores[0]->executionTime);
-
-  sample_cmp_pwr[NOCP] =
-      proc->nocs[0]->rt_power.readOp.dynamic / (proc->cores[0]->executionTime);
-
-  sample_cmp_pwr[DRAMP] =
-      proc->mc->dram->rt_power.readOp.dynamic / (proc->cores[0]->executionTime);
-
-  sample_cmp_pwr[PIPEP] =
-      proc->cores[0]->Pipeline_energy / (proc->cores[0]->executionTime);
-
-  sample_cmp_pwr[IDLE_COREP] =
-      proc->cores[0]->IdleCoreEnergy / (proc->cores[0]->executionTime);
-
-  // This constant dynamic power (e.g., clock power) part is estimated via
-  // regression model.
-  sample_cmp_pwr[CONST_DYNAMICP] = 0;
-  double cnst_dyn =
-      proc->get_const_dynamic_power() / (proc->cores[0]->executionTime);
-  // If the regression scaling term is greater than the recorded constant
-  // dynamic power then use the difference (other portion already added to
-  // dynamic power). Else, all the constant dynamic power is accounted for, add
-  // nothing.
-  if (p->sys.scaling_coefficients[CONST_DYNAMICN] > cnst_dyn)
-    sample_cmp_pwr[CONST_DYNAMICP] =
-        (p->sys.scaling_coefficients[CONST_DYNAMICN] - cnst_dyn);
-
-  proc_power += sample_cmp_pwr[CONST_DYNAMICP];
-
-  double sum_pwr_cmp = 0;
-  for (unsigned i = 0; i < num_pwr_cmps; i++) {
-    sum_pwr_cmp += sample_cmp_pwr[i];
-  }
-  bool check = false;
-  check = sanity_check(sum_pwr_cmp, proc_power);
-  assert("Total Power does not equal the sum of the components\n" && (check));
-}
-
-void gpgpu_sim_wrapper::compute() { proc->compute(); }
-void gpgpu_sim_wrapper::print_power_kernel_stats(
-    double gpu_sim_cycle, double gpu_tot_sim_cycle, double init_value,
-    const std::string& kernel_info_string, bool print_trace) {
-  detect_print_steady_state(1, init_value);
-  if (g_power_simulation_enabled) {
-    powerfile << kernel_info_string << std::endl;
-
-    sanity_check((kernel_power.avg * kernel_sample_count), kernel_tot_power);
-    powerfile << "Kernel Average Power Data:" << std::endl;
-    powerfile << "kernel_avg_power = " << kernel_power.avg << std::endl;
-    powerfile << "kernel_avg_power_without_dram = " << kernel_power_without_dram.avg << std::endl;
-
-    for (unsigned i = 0; i < num_pwr_cmps; ++i) {
-      powerfile << "gpu_avg_" << pwr_cmp_label[i] << " = "
-                << kernel_cmp_pwr[i].avg / kernel_sample_count << std::endl;
-    }
-    for (unsigned i = 0; i < num_perf_counters; ++i) {
-      powerfile << "gpu_avg_" << perf_count_label[i] << " = "
-                << kernel_cmp_perf_counters[i].avg / kernel_sample_count
-                << std::endl;
-    }
-
-    powerfile << std::endl << "Kernel Maximum Power Data:" << std::endl;
-    powerfile << "kernel_max_power = " << kernel_power.max << std::endl;
-    powerfile << "kernel_max_power_without_dram = " << kernel_power_without_dram.max << std::endl;
-    for (unsigned i = 0; i < num_pwr_cmps; ++i) {
-      powerfile << "gpu_max_" << pwr_cmp_label[i] << " = "
-                << kernel_cmp_pwr[i].max << std::endl;
-    }
-    for (unsigned i = 0; i < num_perf_counters; ++i) {
-      powerfile << "gpu_max_" << perf_count_label[i] << " = "
-                << kernel_cmp_perf_counters[i].max << std::endl;
-    }
-
-    powerfile << std::endl << "Kernel Minimum Power Data:" << std::endl;
-    powerfile << "kernel_min_power = " << kernel_power.min << std::endl;
-    powerfile << "kernel_min_power_without_dram = " << kernel_power_without_dram.min << std::endl;
-    for (unsigned i = 0; i < num_pwr_cmps; ++i) {
-      powerfile << "gpu_min_" << pwr_cmp_label[i] << " = "
-                << kernel_cmp_pwr[i].min << std::endl;
-    }
-    for (unsigned i = 0; i < num_perf_counters; ++i) {
-      powerfile << "gpu_min_" << perf_count_label[i] << " = "
-                << kernel_cmp_perf_counters[i].min << std::endl;
-    }
-
-    powerfile << std::endl
-              << "Accumulative Power Statistics Over Previous Kernels:"
-              << std::endl;
-    powerfile << "gpu_tot_avg_power = "
-              << gpu_tot_power.avg / total_sample_count << std::endl;
-    powerfile << "gpu_tot_max_power = " << gpu_tot_power.max << std::endl;
-    powerfile << "gpu_tot_min_power = " << gpu_tot_power.min << std::endl;
-
-    powerfile << "gpu_tot_avg_power_without_dram = "
-              << gpu_tot_power_without_dram.avg / total_sample_count << std::endl;
-    powerfile << "gpu_tot_max_power_without_dram = " << gpu_tot_power_without_dram.max << std::endl;
-    powerfile << "gpu_tot_min_power_without_dram = " << gpu_tot_power_without_dram.min << std::endl;
-    powerfile << std::endl << std::endl;
-    powerfile.flush();
-
-    if (print_trace) {
-      print_trace_files();
-    }
-  }
-}
-void gpgpu_sim_wrapper::dump() {
-  if (g_power_per_cycle_dump) proc->displayEnergy(2, 5);
-}
-
-void gpgpu_sim_wrapper::print_steady_state(int position, double init_val) {
-  double temp_avg = sample_val / (double)samples.size();
-  double temp_ipc = (init_val - init_inst_val) /
-                    (double)(samples.size() * gpu_stat_sample_freq);
-
-  if ((samples.size() >
-       gpu_steady_min_period)) {  // If steady state occurred for some time,
-                                  // print to file
-    has_written_avg = true;
-    gzprintf(steady_state_tacking_file, "%u,%d,%f,%f,", sample_start,
-             total_sample_count, temp_avg, temp_ipc);
-    for (unsigned i = 0; i < num_perf_counters; ++i) {
-      gzprintf(steady_state_tacking_file, "%f,",
-               samples_counter.at(i) / ((double)samples.size()));
-    }
-    gzprintf(steady_state_tacking_file, "\n");
-  } else {
-    if (!has_written_avg && position)
-      gzprintf(steady_state_tacking_file,
-               "ERROR! Not enough steady state points to generate average\n");
-  }
-
-  sample_start = 0;
-  sample_val = 0;
-  init_inst_val = init_val;
-  samples.clear();
-  samples_counter.clear();
-  pwr_counter.clear();
-  assert(samples.size() == 0);
-}
-
-void gpgpu_sim_wrapper::detect_print_steady_state(int position,
-                                                  double init_val) {
-  // Calculating Average
-  if (g_power_simulation_enabled && g_steady_power_levels_enabled) {
-    steady_state_tacking_file = gzopen(g_steady_state_tracking_filename, "a");
-    if (position == 0) {
-      if (samples.size() == 0) {
-        // First sample
-        sample_start = total_sample_count;
-        sample_val = proc->rt_power.readOp.dynamic;
-        init_inst_val = init_val;
-        samples.push_back(proc->rt_power.readOp.dynamic);
-        assert(samples_counter.size() == 0);
-        assert(pwr_counter.size() == 0);
-
-        for (unsigned i = 0; i < (num_perf_counters); ++i) {
-          samples_counter.push_back(sample_perf_counters[i]);
-        }
-
-        for (unsigned i = 0; i < (num_pwr_cmps); ++i) {
-          pwr_counter.push_back(sample_cmp_pwr[i]);
-        }
-        assert(pwr_counter.size() == (double)num_pwr_cmps);
-        assert(samples_counter.size() == (double)num_perf_counters);
-      } else {
-        // Get current average
-        double temp_avg = sample_val / (double)samples.size();
-
-        if (abs(proc->rt_power.readOp.dynamic - temp_avg) <
-            gpu_steady_power_deviation) {  // Value is within threshold
-          sample_val += proc->rt_power.readOp.dynamic;
-          samples.push_back(proc->rt_power.readOp.dynamic);
-          for (unsigned i = 0; i < (num_perf_counters); ++i) {
-            samples_counter.at(i) += sample_perf_counters[i];
-          }
-
-          for (unsigned i = 0; i < (num_pwr_cmps); ++i) {
-            pwr_counter.at(i) += sample_cmp_pwr[i];
-          }
-
-        } else {  // Value exceeds threshold, not considered steady state
-          print_steady_state(position, init_val);
-        }
-      }
-    } else {
-      print_steady_state(position, init_val);
-    }
-    gzclose(steady_state_tacking_file);
-  }
-}
-
-void gpgpu_sim_wrapper::open_files() {
-  if (g_power_simulation_enabled) {
-    if (g_power_trace_enabled) {
-      power_trace_file = gzopen(g_power_trace_filename, "a");
-      metric_trace_file = gzopen(g_metric_trace_filename, "a");
-    }
-  }
-}
-void gpgpu_sim_wrapper::close_files() {
-  if (g_power_simulation_enabled) {
-    if (g_power_trace_enabled) {
-      gzclose(power_trace_file);
-      gzclose(metric_trace_file);
-    }
-  }
-}
